data_str_m1_o19_o25_f0_pcu.sym.85
_audit_creation_date              2012-12-10T17:52:20-0500
_audit_creation_method            fapswitch 2.2
_symmetry_space_group_name_H-M    P1
_symmetry_Int_Tables_number       1
_space_group_crystal_system       triclinic
_cell_length_a                    27.788802
_cell_length_b                    27.7889
_cell_length_c                    22.79426
_cell_angle_alpha                 89.999957
_cell_angle_beta                  127.563421
_cell_angle_gamma                 89.999971
_cell_volume                      13952.8857472

loop_
_atom_site_label
_atom_site_type_symbol
_atom_type_description
_atom_site_fract_x
_atom_site_fract_y
_atom_site_fract_z
_atom_type_partial_charge
C1    C     C_R   0.400091 0.750007 0.300169 0.513738
C2    C     C_3   0.230979 0.282976 0.025195 -0.132530
C3    C     C_1   0.639504 0.250022 0.779111 0.036207
C4    C     C_1   0.139504 0.249977 0.779111 0.036199
C5    C     C_1   0.860496 0.750023 0.220889 0.036221
C6    C     C_1   0.860496 0.249978 0.220889 0.036207
C7    C     C_1   0.139505 0.750021 0.779111 0.036180
C8    C     C_2   0.632218 0.726575 0.952073 0.234046
C9    C     C_2   0.367796 0.273364 0.047926 0.234016
C10   C     C_2   0.368677 0.730504 0.047932 0.234030
C11   C     C_2   0.632130 0.273070 0.952071 0.234036
C12   C     C_2   0.132204 0.226636 0.952074 0.234016
C13   C     C_3   0.232357 0.715754 0.025193 -0.132530
C14   C     C_2   0.867782 0.773425 0.047927 0.234046
C15   C     C_2   0.867869 0.226930 0.047928 0.234036
C16   C     C_2   0.131323 0.769496 0.952068 0.234030
C17   C     C_3   0.768918 0.283075 0.974805 -0.132526
C18   C     C_3   0.269021 0.217024 0.974805 -0.132530
C19   C     C_3   0.730958 0.782956 0.025195 -0.132516
C20   C     C_3   0.731082 0.216925 0.025195 -0.132526
C21   C     C_3   0.267643 0.784245 0.974807 -0.132531
C22   C     C_3   0.713039 0.749906 0.926777 0.046141
C23   C     C_3   0.286962 0.250094 0.073223 0.046148
C24   C     C_3   0.286963 0.749920 0.073223 0.046149
C25   C     C_R   0.599909 0.249993 0.699831 0.513907
C26   C     C_3   0.713039 0.250093 0.926777 0.046144
C27   C     C_3   0.213038 0.249906 0.926777 0.046148
C28   C     C_3   0.786961 0.750094 0.073223 0.046142
C29   C     C_3   0.786961 0.249907 0.073223 0.046144
C30   C     C_3   0.213037 0.750080 0.926777 0.046149
C31   C     C_1   0.672720 0.749950 0.845742 0.007487
C32   C     C_1   0.327280 0.250051 0.154258 0.007468
C33   C     C_1   0.327280 0.749955 0.154258 0.007448
C34   C     C_1   0.672720 0.250050 0.845742 0.007473
C35   C     C_1   0.172720 0.249949 0.845742 0.007468
C36   C     C_R   0.599909 0.750007 0.699831 0.513931
C37   C     C_1   0.827280 0.750050 0.154258 0.007487
C38   C     C_1   0.827280 0.249950 0.154258 0.007473
C39   C     C_1   0.172720 0.750044 0.845742 0.007448
C40   C     C_1   0.318890 0.750009 0.499990 0.021669
C41   C     C_1   0.681110 0.249991 0.500010 0.021671
C42   C     C_1   0.681110 0.750009 0.500010 0.021747
C43   C     C_1   0.318890 0.249991 0.499990 0.021681
C44   C     C_1   0.818890 0.250009 0.499990 0.021671
C45   C     C_1   0.181110 0.749991 0.500010 0.021669
C46   C     C_1   0.181110 0.250009 0.500010 0.021681
C47   C     C_R   0.400091 0.249993 0.300169 0.513912
C48   C     C_1   0.818890 0.749991 0.499990 0.021747
C49   C     C_1   0.275450 0.750003 0.499996 -0.022700
C50   C     C_1   0.724550 0.249997 0.500004 -0.022700
C51   C     C_1   0.724550 0.750003 0.500004 -0.022617
C52   C     C_1   0.275450 0.249997 0.499996 -0.022690
C53   C     C_1   0.775450 0.250003 0.499996 -0.022700
C54   C     C_1   0.224550 0.749997 0.500004 -0.022700
C55   C     C_1   0.224550 0.250003 0.500004 -0.022690
C56   C     C_1   0.775450 0.749997 0.499996 -0.022617
C57   C     C_1   0.500000 0.931113 0.500000 0.017560
C58   C     C_R   0.900091 0.250007 0.300169 0.513906
C59   C     C_1   0.500000 0.068887 0.500000 0.017523
C60   C     C_1   1.000000 0.431113 0.500000 0.017523
C61   C     C_1   0.000000 0.568887 0.500000 0.017560
C62   C     C_1   0.500000 0.974552 0.500000 -0.027234
C63   C     C_1   0.500000 0.025448 0.500000 -0.027252
C64   C     C_1   0.000000 0.474552 0.500000 -0.027252
C65   C     C_1   0.000000 0.525448 0.500000 -0.027234
C66   C     C_R   0.629370 0.750014 0.500012 0.510496
C67   C     C_R   0.370630 0.249985 0.499987 0.510567
C68   C     C_R   0.370630 0.750015 0.499987 0.510602
C69   C     C_R   0.099909 0.749993 0.699831 0.513738
C70   C     C_R   0.629370 0.249985 0.500012 0.510560
C71   C     C_R   0.129370 0.250014 0.500012 0.510567
C72   C     C_R   0.870630 0.749985 0.499987 0.510496
C73   C     C_R   0.870630 0.250014 0.499987 0.510560
C74   C     C_R   0.129370 0.749985 0.500012 0.510602
C75   C     C_R   0.500000 0.879378 0.500000 0.505897
C76   C     C_R   0.500000 0.120621 0.500000 0.505896
C77   C     C_R   0.000000 0.379378 0.500000 0.505896
C78   C     C_R   0.000000 0.620622 0.500000 0.505897
C79   C     C_R   0.500000 0.620639 0.500000 0.512011
C80   C     C_R   0.099909 0.250007 0.699831 0.513913
C81   C     C_R   0.500000 0.379361 0.500000 0.512082
C82   C     C_R   0.000000 0.120639 0.500000 0.512082
C83   C     C_R   1.000000 0.879361 0.500000 0.512011
C84   C     C_1   0.500000 0.568896 0.500000 0.019956
C85   C     C_1   0.500000 0.431104 0.500000 0.020013
C86   C     C_1   0.000000 0.068896 0.500000 0.020013
C87   C     C_1   1.000000 0.931104 0.500000 0.019956
C88   C     C_1   0.500000 0.525452 0.500000 -0.024445
C89   C     C_1   0.500000 0.474548 0.500000 -0.024421
C90   C     C_1   0.000000 0.025452 0.500000 -0.024421
C91   C     C_R   0.900091 0.749993 0.300169 0.513931
C92   C     C_1   1.000000 0.974548 0.500000 -0.024445
C93   C     C_3   0.250142 0.206052 0.025214 -0.133932
C94   C     C_3   0.749830 0.793956 0.974786 -0.133932
C95   C     C_3   0.749996 0.206091 0.974786 -0.133930
C96   C     C_3   0.248349 0.793400 0.025213 -0.133956
C97   C     C_3   0.750170 0.706044 0.025214 -0.133932
C98   C     C_3   0.249858 0.293948 0.974786 -0.133932
C99   C     C_3   0.251651 0.706600 0.974787 -0.133955
C100  C     C_3   0.750004 0.293909 0.025214 -0.133930
C101  C     C_3   0.694318 0.739052 0.976316 0.044017
C102  C     C_3   0.769042 0.717044 0.974805 -0.132516
C103  C     C_3   0.305689 0.260919 0.023683 0.044026
C104  C     C_3   0.306101 0.740888 0.023686 0.044018
C105  C     C_3   0.694277 0.260782 0.976316 0.044019
C106  C     C_3   0.194311 0.239081 0.976316 0.044026
C107  C     C_3   0.805682 0.760947 0.023684 0.044017
C108  C     C_3   0.805723 0.239218 0.023684 0.044019
C109  C     C_3   0.193899 0.759112 0.976314 0.044018
C110  C     C_1   0.639504 0.749977 0.779111 0.036220
C111  C     C_1   0.360496 0.250023 0.220889 0.036199
C112  C     C_1   0.360495 0.749979 0.220889 0.036180
H1    H     H_    0.250161 0.170030 0.046293 0.117751
H2    H     H_    0.784714 0.690176 0.953742 0.120372
H3    H     H_    0.784488 0.310042 0.953743 0.120337
H4    H     H_    0.217826 0.687817 0.046255 0.120280
H5    H     H_    0.715286 0.809824 0.046258 0.120372
H6    H     H_    0.284675 0.190138 0.953742 0.120327
H7    H     H_    0.282174 0.812182 0.953744 0.120280
H8    H     H_    0.715512 0.189957 0.046257 0.120337
H9    H     H_    0.625325 0.719701 0.993305 0.103071
H10   H     H_    0.374694 0.280221 0.006694 0.103052
H11   H     H_    0.375835 0.724782 0.006702 0.103139
H12   H     H_    0.749788 0.829985 0.953707 0.117758
H13   H     H_    0.625210 0.279840 0.993303 0.103057
H14   H     H_    0.125306 0.219779 0.993306 0.103052
H15   H     H_    0.874675 0.780299 0.006695 0.103071
H16   H     H_    0.874790 0.220160 0.006697 0.103057
H17   H     H_    0.124164 0.775218 0.993298 0.103139
H18   H     H_    0.750090 0.170102 0.953708 0.117752
H19   H     H_    0.246898 0.828960 0.046291 0.117699
H20   H     H_    0.750212 0.670015 0.046293 0.117758
H21   H     H_    0.249839 0.329970 0.953707 0.117751
H22   H     H_    0.253102 0.671040 0.953709 0.117699
H23   H     H_    0.749910 0.329898 0.046292 0.117752
H24   H     H_    0.215325 0.309862 0.046258 0.120327
O1    O     O_3   0.500000 0.750010 0.500000 -0.445026
O2    O     O_R   0.110060 0.777860 0.664410 -0.538610
O3    O     O_R   0.110060 0.222140 0.664410 -0.538257
O4    O     O_R   0.889940 0.777860 0.335590 -0.538204
O5    O     O_R   0.584730 0.777880 0.456910 -0.528159
O6    O     O_R   0.415270 0.222120 0.543090 -0.528261
O7    O     O_R   0.415270 0.777880 0.543090 -0.528261
O8    O     O_R   0.584730 0.222120 0.456910 -0.528269
O9    O     O_R   0.084730 0.277880 0.456910 -0.528261
O10   O     O_R   0.915270 0.722120 0.543090 -0.528159
O11   O     O_R   0.915270 0.277880 0.543090 -0.528269
O12   O     O_3   0.500000 0.249990 0.500000 -0.444993
O13   O     O_R   0.084730 0.722120 0.456910 -0.528261
O14   O     O_R   0.506320 0.856290 0.456920 -0.533965
O15   O     O_R   0.493680 0.143710 0.543080 -0.534075
O16   O     O_R   0.493680 0.856290 0.543080 -0.534108
O17   O     O_R   0.506320 0.143710 0.456920 -0.534061
O18   O     O_R   0.006320 0.356290 0.456920 -0.534075
O19   O     O_R   0.993680 0.643710 0.543080 -0.533965
O20   O     O_R   0.993680 0.356290 0.543080 -0.534060
O21   O     O_R   0.006320 0.643710 0.456920 -0.534108
O22   O     O_R   0.450590 0.643730 0.456890 -0.531123
O23   O     O_3   0.000000 0.250010 0.500000 -0.444993
O24   O     O_R   0.549410 0.356270 0.543110 -0.531018
O25   O     O_R   0.549410 0.643730 0.543110 -0.531000
O26   O     O_R   0.450590 0.356270 0.456890 -0.531036
O27   O     O_R   0.950590 0.143730 0.456890 -0.531018
O28   O     O_R   0.049410 0.856270 0.543110 -0.531123
O29   O     O_R   0.049410 0.143730 0.543110 -0.531036
O30   O     O_R   0.950590 0.856270 0.456890 -0.531000
O31   O     O_R   0.627830 0.722150 0.543110 -0.534232
O32   O     O_R   0.372170 0.277850 0.456890 -0.534192
O33   O     O_R   0.372170 0.722150 0.456890 -0.534160
O34   O     O_3   0.000000 0.749990 0.500000 -0.445026
O35   O     O_R   0.627830 0.277850 0.543110 -0.534191
O36   O     O_R   0.127830 0.222150 0.543110 -0.534192
O37   O     O_R   0.872170 0.777850 0.456890 -0.534232
O38   O     O_R   0.872170 0.222150 0.456890 -0.534191
O39   O     O_R   0.127830 0.777850 0.543110 -0.534160
O40   O     O_R   0.445670 0.777870 0.335600 -0.524270
O41   O     O_R   0.554330 0.222130 0.664400 -0.524815
O42   O     O_R   0.554330 0.777870 0.664400 -0.524872
O43   O     O_R   0.445670 0.222130 0.335600 -0.524846
O44   O     O_R   0.945670 0.277870 0.335600 -0.524815
O45   O     O_R   0.389940 0.722140 0.335590 -0.538610
O46   O     O_R   0.054330 0.722130 0.664400 -0.524270
O47   O     O_R   0.054330 0.277870 0.664400 -0.524845
O48   O     O_R   0.945670 0.722130 0.335600 -0.524872
O49   O     O_2   0.589346 0.724071 0.886468 -0.484344
O50   O     O_2   0.410670 0.275863 0.113531 -0.484366
O51   O     O_2   0.411644 0.728420 0.113539 -0.484130
O52   O     O_2   0.589250 0.275538 0.886466 -0.484323
O53   O     O_2   0.089330 0.224137 0.886469 -0.484366
O54   O     O_2   0.910654 0.775929 0.113532 -0.484344
O55   O     O_2   0.910750 0.224462 0.113534 -0.484323
O56   O     O_R   0.610060 0.277860 0.664410 -0.538266
O57   O     O_2   0.088356 0.771580 0.886461 -0.484130
O58   O     O_R   0.610060 0.722140 0.664410 -0.538204
O59   O     O_R   0.389940 0.277860 0.335590 -0.538257
O60   O     O_R   0.889940 0.222140 0.335590 -0.538266
Zn1   Zn    Zn3+2 0.570600 0.710200 0.561580 0.962121
Zn2   Zn    Zn3+2 0.490980 0.210180 0.561570 0.967308
Zn3   Zn    Zn3+2 0.490980 0.789820 0.561570 0.967284
Zn4   Zn    Zn3+2 0.509020 0.210180 0.438430 0.967293
Zn5   Zn    Zn3+2 0.009020 0.289820 0.438430 0.967308
Zn6   Zn    Zn3+2 0.990980 0.710180 0.561570 0.967661
Zn7   Zn    Zn3+2 0.990980 0.289820 0.561570 0.967293
Zn8   Zn    Zn3+2 0.009020 0.710180 0.438430 0.967284
Zn9   Zn    Zn3+2 0.429400 0.289800 0.438420 0.962147
Zn10  Zn    Zn3+2 0.429400 0.710200 0.438420 0.961886
Zn11  Zn    Zn3+2 0.570600 0.289800 0.561580 0.962154
Zn12  Zn    Zn3+2 0.070600 0.210200 0.561580 0.962147
Zn13  Zn    Zn3+2 0.929400 0.789800 0.438420 0.962121
Zn14  Zn    Zn3+2 0.929400 0.210200 0.438420 0.962154
Zn15  Zn    Zn3+2 0.070600 0.789800 0.561580 0.961886
Zn16  Zn    Zn3+2 0.509020 0.789820 0.438430 0.967661

loop_
_geom_bond_atom_site_label_1
_geom_bond_atom_site_label_2
_ccdc_geom_bond_type
C28   C97   S    
C67   O32   A    
C83   C87   S    
O42   Zn3   S    
C1    O40   A    
C13   C99   S    
O48   Zn8   S    
C32   C111  T    
C5    C37   T    
O6    Zn2   S    
C81   O26   A    
C6    C58   S    
C76   O17   A    
C83   O28   A    
C79   O22   A    
C57   C62   T    
C27   C98   S    
C66   O5    A    
C12   O53   D    
C98   H21   S    
C100  C105  S    
C22   C101  S    
C66   O31   A    
C73   O11   A    
C17   C26   S    
C47   O59   A    
C11   H13   S    
C79   O25   A    
C43   C52   T    
C4    C80   S    
C24   C96   S    
C1    C112  S    
C79   C84   S    
C77   O18   A    
C47   C111  S    
C78   O19   A    
O23   Zn5   S    
O58   Zn1   S    
C12   H14   S    
C82   O27   A    
C28   C107  S    
O13   Zn8   S    
C98   C103  S    
O2    Zn15  S    
C26   C95   S    
C68   O7    A    
C51   C56   S    
C80   O47   A    
C58   O60   A    
C73   O38   A    
C13   C109  S    
C16   O57   D    
O12   Zn11  S    
C21   C104  S    
C90   C92   S    
C44   C53   T    
C26   C34   S    
C23   C103  S    
O34   Zn15  S    
O1    Zn3   S    
O8    Zn4   S    
C46   C55   T    
C11   C105  S    
C95   H18   S    
C47   O43   A    
C6    C38   T    
C74   O13   A    
O39   Zn15  S    
O19   Zn6   S    
C8    C101  S    
C75   O16   A    
C21   C30   S    
O34   Zn8   S    
C97   C102  S    
O32   Zn9   S    
C52   C55   S    
C81   C85   S    
C69   O46   A    
C20   C29   S    
O60   Zn14  S    
C12   C106  S    
C99   C104  S    
C4    C35   T    
C81   O24   A    
O46   Zn6   S    
C91   O48   A    
O30   Zn13  S    
C22   C94   S    
O15   Zn2   S    
C48   C72   S    
C26   C105  S    
C17   C100  S    
O27   Zn14  S    
C16   C109  S    
C9    H10   S    
O1    Zn10  S    
O20   Zn7   S    
C60   C77   S    
C83   O30   A    
C94   C107  S    
O9    Zn5   S    
C50   C53   S    
C22   C31   S    
C30   C109  S    
C11   O52   D    
O22   Zn10  S    
O23   Zn12  S    
C36   O42   A    
C9    O50   D    
C86   C90   T    
C17   C108  S    
O33   Zn10  S    
O17   Zn4   S    
C1    O45   A    
O12   Zn4   S    
O1    Zn16  S    
C3    C34   T    
C27   C35   S    
C82   C86   S    
C30   C99   S    
C2    C106  S    
C2    H24   S    
C14   H15   S    
O40   Zn16  S    
C99   H22   S    
C45   C74   S    
C24   C104  S    
O28   Zn15  S    
O14   Zn16  S    
C15   C108  S    
C29   C38   S    
C70   O35   A    
C62   C63   S    
C102  H2    S    
C95   C108  S    
C93   C106  S    
C68   O33   A    
C78   O21   A    
O23   Zn7   S    
O59   Zn9   S    
O36   Zn12  S    
C61   C78   S    
C9    C103  S    
C10   O51   D    
O31   Zn1   S    
C102  C107  S    
C29   C108  S    
O21   Zn8   S    
C93   H1    S    
C72   O37   A    
C16   H17   S    
O23   Zn14  S    
O5    Zn16  S    
C2    C98   S    
C46   C71   S    
C5    C91   S    
C19   C94   S    
O12   Zn9   S    
C96   H19   S    
O16   Zn3   S    
C43   C67   S    
C14   C107  S    
C71   O9    A    
C20   C95   S    
O1    Zn1   S    
C45   C54   T    
C10   H11   S    
C15   H16   S    
O26   Zn9   S    
C19   C28   S    
O56   Zn11  S    
C23   C93   S    
O35   Zn11  S    
C41   C50   T    
C20   H8    S    
O18   Zn5   S    
C17   H3    S    
C20   C105  S    
C96   C109  S    
C33   C112  T    
C69   O2    A    
C48   C56   T    
C15   O55   D    
C85   C89   T    
C49   C54   S    
C29   C100  S    
O38   Zn14  S    
C70   O8    A    
O37   Zn13  S    
C18   C27   S    
C84   C88   T    
C97   H20   S    
C25   O56   A    
C7    C69   S    
C100  H23   S    
C18   H6    S    
C21   C96   S    
C8    O49   D    
O44   Zn5   S    
C80   O3    A    
O7    Zn3   S    
O4    Zn13  S    
C42   C51   T    
C59   C63   T    
C24   C33   S    
C22   C102  S    
O25   Zn1   S    
C60   C64   T    
O47   Zn7   S    
C64   C65   S    
C57   C75   S    
O11   Zn7   S    
O45   Zn10  S    
C74   O39   A    
O10   Zn6   S    
C23   C32   S    
O24   Zn11  S    
C36   C110  S    
C19   C101  S    
O12   Zn2   S    
C76   O15   A    
O34   Zn13  S    
C28   C37   S    
C72   O10   A    
C10   C104  S    
C31   C110  T    
C30   C39   S    
C27   C106  S    
C25   O41   A    
C18   C103  S    
O41   Zn2   S    
C44   C73   S    
C8    H9    S    
O29   Zn12  S    
C36   O58   A    
O34   Zn6   S    
C13   H4    S    
O3    Zn12  S    
C77   O20   A    
C91   O4    A    
C14   O54   D    
C61   C65   T    
C3    C25   S    
C88   C89   S    
C13   C24   S    
C21   H7    S    
C40   C68   S    
C2    C23   S    
C42   C66   S    
C18   C93   S    
C7    C39   T    
C71   O36   A    
C58   O44   A    
C75   O14   A    
C87   C92   T    
C67   O6    A    
C59   C76   S    
C82   O29   A    
C97   C101  S    
O43   Zn4   S    
C40   C49   T    
C41   C70   S    
C19   H5    S    
C94   H12   S    
