data_str_m3_o16_o27_f0_pcu.sym.146
_audit_creation_date              2012-12-10T18:14:19-0500
_audit_creation_method            fapswitch 2.2
_symmetry_space_group_name_H-M    P1
_symmetry_Int_Tables_number       1
_space_group_crystal_system       triclinic
_cell_length_a                    12.690628
_cell_length_b                    13.226593
_cell_length_c                    18.870393
_cell_angle_alpha                 93.259229
_cell_angle_beta                  102.264796
_cell_angle_gamma                 81.78063
_cell_volume                      3062.23072928

loop_
_atom_site_label
_atom_site_type_symbol
_atom_type_description
_atom_site_fract_x
_atom_site_fract_y
_atom_site_fract_z
_atom_type_partial_charge
C1    C     C_R   0.439159 0.691101 0.491650 0.870744
C2    C     C_R   0.513019 0.473762 0.711261 -0.031367
C3    C     C_R   0.545168 0.398797 0.074143 0.298526
C4    C     C_R   0.546759 0.393715 0.931081 0.289052
C5    C     C_R   0.457747 0.382745 0.178107 -0.155339
C6    C     C_R   0.442589 0.413017 0.247302 -0.175479
C7    C     C_R   0.503244 0.485147 0.288201 -0.133714
C8    C     C_R   0.577963 0.529946 0.257759 -0.032023
C9    C     C_R   0.594440 0.496360 0.188971 -0.138207
C10   C     C_R   0.534871 0.423115 0.149055 0.034415
C11   C     C_R   0.723054 0.057135 0.526504 -0.176541
C12   C     C_R   0.502525 0.496387 0.634853 0.860248
C13   C     C_R   0.593917 0.204453 0.539503 -0.156914
C14   C     C_R   0.311951 0.828453 0.531776 -0.161932
C15   C     C_R   0.304048 0.917994 0.573314 -0.131099
C16   C     C_R   0.383645 0.982056 0.580620 -0.087702
C17   C     C_R   0.464393 0.965111 0.538255 0.120449
C18   C     C_R   0.475322 0.871485 0.498812 0.103567
C19   C     C_R   0.539120 0.034985 0.536765 0.039479
C20   C     C_R   0.638556 0.997402 0.515117 0.149138
C21   C     C_R   0.648933 0.904525 0.477342 -0.158321
C22   C     C_R   0.562854 0.848010 0.462746 -0.154560
C23   C     C_R   0.559878 0.310952 0.516952 0.857065
C24   C     C_R   0.515597 0.141976 0.548009 -0.079447
C25   C     C_R   0.701391 0.160409 0.542671 -0.156602
C26   C     C_R   0.402983 0.800227 0.500399 -0.134702
C27   C     C_R   0.081901 0.395729 0.368574 -0.272670
C28   C     C_R   0.798986 0.633930 0.585297 0.112974
C29   C     C_R   0.893446 0.678218 0.590977 -0.245447
C30   C     C_R   0.969700 0.637505 0.551424 -0.219778
C31   C     C_R   0.954057 0.550429 0.506620 0.003756
C32   C     C_R   0.850683 0.515559 0.493331 0.176292
C33   C     C_R   0.036459 0.499299 0.471830 -0.074199
C34   C     C_R   0.498967 0.499999 0.365098 0.800322
C35   C     C_R   0.004503 0.444734 0.406233 0.164332
C36   C     C_R   0.896536 0.430586 0.382726 -0.199938
C37   C     C_R   0.826857 0.447733 0.431602 -0.026002
C38   C     C_R   0.149229 0.495172 0.501062 0.082517
C39   C     C_R   0.191212 0.397251 0.398170 0.054345
C40   C     C_R   0.426789 0.438513 0.734117 -0.183507
C41   C     C_R   0.439424 0.407826 0.804886 -0.168195
C42   C     C_R   0.538435 0.412234 0.854191 0.085317
C43   C     C_R   0.625381 0.445706 0.831055 -0.151605
C44   C     C_R   0.612787 0.476158 0.760154 -0.193588
H1    H     H_    0.349738 0.433312 0.697262 0.151889
H2    H     H_    0.720494 0.878977 0.454998 0.151684
H3    H     H_    0.253904 0.776066 0.531766 0.206827
H4    H     H_    0.382340 0.042810 0.621205 0.123244
H5    H     H_    0.251935 0.362639 0.368524 0.138969
H6    H     H_    0.874435 0.383819 0.333963 0.144788
H7    H     H_    0.058191 0.354801 0.317553 0.151831
H8    H     H_    0.370766 0.382700 0.821190 0.152043
H9    H     H_    0.038516 0.677894 0.553944 0.190248
H10   H     H_    0.908225 0.744510 0.626283 0.175322
H11   H     H_    0.702772 0.449901 0.867926 0.152246
H12   H     H_    0.385785 0.377200 0.269752 0.155916
H13   H     H_    0.650576 0.530978 0.165056 0.190838
H14   H     H_    0.766239 0.206714 0.550873 0.225417
N1    N     N_R   0.634178 0.417780 0.980757 -0.173313
N2    N     N_R   0.633347 0.420373 0.051011 -0.172746
N3    N     N_R   0.459994 0.369482 0.024810 -0.168975
N4    N     N_R   0.460772 0.367090 0.954459 -0.176432
N5    N     N_R   0.222200 0.444680 0.463280 -0.119993
N6    N     N_R   0.776960 0.554780 0.536340 -0.172015
O1    O     O_R   0.366740 0.627160 0.482470 -0.568755
O2    O     O_R   0.544830 0.662520 0.505920 -0.600532
O3    O     O_R   0.410920 0.482320 0.590130 -0.588242
O4    O     O_R   0.589010 0.517690 0.613590 -0.654595
O5    O     O_R   0.455170 0.337480 0.494080 -0.601980
O6    O     O_R   0.633260 0.372840 0.517530 -0.615727
O7    O     O_R   0.410990 0.482310 0.386410 -0.608060
O8    O     O_R   0.589080 0.517680 0.409870 -0.661582
Zn1   Zn    Zn3+2 0.381090 0.476390 0.484340 0.991177
Zn2   Zn    Zn3+2 0.618910 0.523610 0.515660 0.940640
H15   H     H_    0.803110 0.025903 0.517660 0.158195
C45   C     C_2   0.407163 0.191273 0.559122 0.413625
H16   H     H_    0.402153 0.246755 0.603356 0.049275
O9    O     O_2   0.324064 0.175827 0.516059 -0.555338
H17   H     H_    0.239902 0.934515 0.603691 0.150996
H18   H     H_    0.568467 0.782558 0.426216 0.142323
C46   C     C_2   0.189096 0.532422 0.575509 0.415268
H19   H     H_    0.170716 0.496141 0.620744 0.033450
O10   O     O_2   0.235582 0.608125 0.586602 -0.583696
C47   C     C_2   0.722319 0.679785 0.630307 0.473526
H20   H     H_    0.701550 0.635142 0.670118 0.059079
O11   O     O_2   0.687975 0.770814 0.627091 -0.583691
C48   C     C_2   0.766781 0.361038 0.428510 0.495341
H21   H     H_    0.688827 0.358668 0.392176 0.078910
O12   O     O_2   0.814008 0.282411 0.457206 -0.613170
H22   H     H_    0.681702 0.500303 0.743680 0.144088
H23   H     H_    0.409969 0.327016 0.147622 0.153449
C49   C     C_2   0.635617 0.614687 0.294830 0.406153
H24   H     H_    0.606005 0.659520 0.338062 0.067710
O13   O     O_2   0.716328 0.636398 0.276744 -0.569285

loop_
_geom_bond_atom_site_label_1
_geom_bond_atom_site_label_2
_ccdc_geom_bond_type
C48   H21   S    
C28   C47   S    
C41   C42   A    
C23   O5    A    
C35   C36   A    
C18   C26   A    
C2    C12   S    
C16   H4    S    
C46   H19   S    
C44   H22   S    
C7    C8    A    
C6    H12   S    
C12   O4    A    
C5    C6    A    
C36   C37   A    
C47   O11   D    
C21   H2    S    
C30   C31   A    
C29   H10   S    
C11   C25   A    
O4    Zn2   S    
C15   C16   A    
O2    Zn2   S    
C4    N4    A    
O1    Zn1   S    
C13   C23   S    
C17   C19   A    
C47   H20   S    
C15   H17   S    
C19   C20   A    
C2    C44   A    
C8    C9    A    
O6    Zn2   S    
C1    O1    A    
C31   C33   A    
O5    Zn1   S    
C8    C49   S    
C9    C10   A    
C41   H8    S    
C3    N2    A    
N1    N2    A    
C21   C22   A    
C23   O6    A    
C13   C25   A    
C46   O10   D    
C27   H7    S    
C1    O2    A    
C6    C7    A    
C3    N3    A    
C40   H1    S    
C12   O3    A    
C11   C20   A    
C45   H16   S    
C32   N6    A    
O8    Zn2   S    
C27   C39   A    
O7    Zn1   S    
C24   C45   S    
N5    Zn1   S    
C27   C35   A    
C13   C24   A    
C43   C44   A    
C29   C30   A    
C31   C32   A    
C49   O13   D    
C17   C18   A    
C30   H9    S    
C32   C37   A    
C14   C26   A    
C5    H23   S    
O3    Zn1   S    
C28   N6    A    
C43   H11   S    
C40   C41   A    
C39   H5    S    
C48   O12   D    
C38   C46   S    
C1    C26   S    
C7    C34   S    
C42   C43   A    
C34   O8    A    
C36   H6    S    
C38   N5    A    
C28   C29   A    
C18   C22   A    
C37   C48   S    
C45   O9    D    
C14   H3    S    
C39   N5    A    
C33   C38   A    
C19   C24   A    
C22   H18   S    
C5    C10   A    
C3    C10   S    
C11   H15   S    
C16   C17   A    
C4    C42   S    
C4    N1    A    
C49   H24   S    
C33   C35   A    
C9    H13   S    
N3    N4    A    
C2    C40   A    
C20   C21   A    
C25   H14   S    
N6    Zn2   S    
C14   C15   A    
C34   O7    A    
