data_str_m2_o16_o18_f0_pcu.sym.154
_audit_creation_date              2012-12-10T17:32:58-0500
_audit_creation_method            fapswitch 2.2
_symmetry_space_group_name_H-M    P1
_symmetry_Int_Tables_number       1
_space_group_crystal_system       triclinic
_cell_length_a                    12.376075
_cell_length_b                    13.263399
_cell_length_c                    14.286388
_cell_angle_alpha                 93.325255
_cell_angle_beta                  107.604199
_cell_angle_gamma                 117.074198
_cell_volume                      1936.71345525

loop_
_atom_site_label
_atom_site_type_symbol
_atom_type_description
_atom_site_fract_x
_atom_site_fract_y
_atom_site_fract_z
_atom_type_partial_charge
C1    C     C_R   0.650766 0.714070 0.508522 0.767214
C2    C     C_R   0.844540 0.493362 0.917349 0.089352
C3    C     C_R   0.789465 0.502155 0.989150 0.166983
C4    C     C_R   0.952225 0.473008 0.944817 0.065965
C5    C     C_R   0.011726 0.473703 0.047152 0.061890
C6    C     C_R   0.952385 0.480773 0.116123 -0.210125
C7    C     C_R   0.843017 0.494126 0.087197 -0.237404
C8    C     C_R   0.000300 0.449122 0.873014 -0.220635
C9    C     C_R   0.107960 0.433234 0.901615 -0.228959
C10   C     C_R   0.173312 0.442775 0.002645 0.168231
C11   C     C_R   0.127185 0.464928 0.076618 0.078384
C12   C     C_R   0.618110 0.516475 0.686525 0.784534
C13   C     C_R   0.285118 0.430951 0.030645 -0.197002
C14   C     C_R   0.353312 0.442901 0.131773 -0.203129
C15   C     C_R   0.200594 0.481017 0.178161 -0.213079
C16   C     C_R   0.139482 0.966179 0.363107 -0.184646
C17   C     C_R   0.248834 0.162234 0.463197 -0.052635
C18   C     C_R   0.730130 0.921530 0.573010 -0.187141
C19   C     C_R   0.820115 0.038562 0.591388 -0.150569
C20   C     C_R   0.920979 0.073058 0.555334 -0.136994
C21   C     C_R   0.931036 0.990338 0.496294 0.085194
C22   C     C_R   0.829644 0.872733 0.467269 0.077312
C23   C     C_R   0.345258 0.285275 0.484983 0.814840
C24   C     C_R   0.037719 0.020653 0.464275 0.083093
C25   C     C_R   0.034697 0.936926 0.395374 0.162843
C26   C     C_R   0.926071 0.825780 0.357849 -0.234119
C27   C     C_R   0.824298 0.794427 0.392243 -0.193456
C28   C     C_R   0.148493 0.131553 0.499903 -0.190898
C29   C     C_R   0.245855 0.078774 0.396323 -0.191557
C30   C     C_R   0.735549 0.837364 0.513336 -0.102465
C31   C     C_R   0.251394 0.677315 0.666550 -0.304553
C32   C     C_R   0.652156 0.337744 0.367739 -0.042137
C33   C     C_R   0.725258 0.291371 0.347193 -0.352572
C34   C     C_R   0.381105 0.482437 0.313335 0.810063
C35   C     C_R   0.859454 0.345502 0.401150 0.670274
C36   C     C_R   0.925003 0.453280 0.472366 -0.131462
C37   C     C_R   0.843286 0.492293 0.496037 0.207608
C38   C     C_R   0.065704 0.520357 0.525671 -0.128316
C39   C     C_R   0.117027 0.613852 0.609029 0.099284
C40   C     C_R   0.034726 0.645606 0.633897 -0.249012
C41   C     C_R   0.902050 0.588480 0.577163 -0.153117
C42   C     C_R   0.159846 0.503589 0.499088 0.788998
C43   C     C_R   0.336587 0.651102 0.640460 -0.061741
C44   C     C_R   0.679397 0.518401 0.792400 -0.049187
C45   C     C_R   0.311607 0.468819 0.206052 -0.057239
C46   C     C_R   0.680409 0.518116 0.961850 -0.199618
C47   C     C_R   0.624713 0.524915 0.863625 -0.195770
C48   C     C_R   0.790658 0.506650 0.820549 -0.254295
Cu1   Cu    Cu3+1 0.416420 0.526630 0.522910 0.991702
Cu2   Cu    Cu3+1 0.583580 0.473370 0.477090 0.925514
H1    H     H_    0.800453 0.498775 0.142310 0.143230
H2    H     H_    0.320085 0.412928 0.974295 0.130825
H3    H     H_    0.322881 0.101638 0.366800 0.150398
H4    H     H_    0.919871 0.762492 0.301910 0.143666
H5    H     H_    0.137487 0.902801 0.310177 0.137799
H6    H     H_    0.657669 0.896756 0.607530 0.155699
H7    H     H_    0.987395 0.165362 0.572970 0.150150
H8    H     H_    0.814095 0.102861 0.636580 0.145233
H9    H     H_    0.440023 0.699042 0.685488 0.153008
H10   H     H_    0.073897 0.717692 0.697038 0.149285
H11   H     H_    0.290471 0.747323 0.731405 0.158089
H12   H     H_    0.547575 0.292760 0.327291 0.157993
H13   H     H_    0.676439 0.209748 0.292240 0.180477
H14   H     H_    0.848363 0.621328 0.601336 0.200703
H15   H     H_    0.439186 0.433186 0.151794 0.151826
H16   H     H_    0.141293 0.414831 0.844185 0.142969
H17   H     H_    0.637195 0.523793 0.016182 0.130642
H18   H     H_    0.538460 0.534068 0.843286 0.152559
H19   H     H_    0.834475 0.509477 0.765515 0.153164
H20   H     H_    0.985291 0.472373 0.192676 0.177423
H21   H     H_    0.954655 0.438411 0.793129 0.150553
N1    N     N_R   0.290690 0.566960 0.557640 -0.235940
N2    N     N_R   0.709100 0.433710 0.442970 -0.196511
O1    O     O_R   0.545970 0.684450 0.528810 -0.582143
O2    O     O_R   0.687130 0.639470 0.490120 -0.603896
O3    O     O_R   0.519670 0.535100 0.660030 -0.592797
O4    O     O_R   0.660830 0.490120 0.621340 -0.597061
O5    O     O_R   0.312870 0.360530 0.509880 -0.535231
O6    O     O_R   0.454030 0.315550 0.471190 -0.590893
O7    O     O_R   0.339170 0.509880 0.378660 -0.522197
O8    O     O_R   0.480330 0.464900 0.339970 -0.603117
H22   H     H_    0.159214 0.196758 0.556026 0.141602
H23   H     H_    0.740147 0.708916 0.356918 0.173158
H24   H     H_    0.175253 0.506455 0.237527 0.184703
F1    F     F_    0.124869 0.432013 0.411286 -0.618376
F2    F     F_    0.917928 0.282788 0.391241 -0.622438

loop_
_geom_bond_atom_site_label_1
_geom_bond_atom_site_label_2
_ccdc_geom_bond_type
C43   N1    A    
C40   H10   S    
C17   C29   A    
C31   H11   S    
C35   C36   A    
C48   H19   S    
C4    C8    A    
Cu2   O6    S    
C26   C27   A    
C17   C23   S    
C31   C43   A    
C1    O1    A    
C36   C37   A    
C5    C11   A    
C3    C7    A    
C5    C6    A    
C35   F2    S    
Cu1   O5    S    
C18   C19   A    
C9    H16   S    
C34   O7    A    
C11   C15   A    
C19   C20   A    
C8    C9    A    
Cu1   N1    S    
C18   C30   A    
C34   O8    A    
C9    C10   A    
C44   C47   A    
C43   H9    S    
C21   C22   A    
C26   H4    S    
C14   C45   A    
C19   H8    S    
C28   H22   S    
C1    O2    A    
C24   C25   A    
Cu2   N2    S    
C32   N2    A    
C34   C45   S    
C2    C48   A    
C25   C26   A    
C2    C4    A    
C13   H2    S    
C33   H13   S    
C12   O4    A    
C42   N1    A    
Cu1   O3    S    
C42   F1    S    
C6    C7    A    
C40   C41   A    
C22   C27   A    
C12   O3    A    
C15   C45   A    
Cu2   O4    S    
C47   H18   S    
C39   C40   A    
C16   C25   A    
C6    H20   S    
C37   N2    A    
C46   C47   A    
C8    H21   S    
C22   C30   A    
C17   C28   A    
C24   C28   A    
C4    C5    A    
C10   C13   A    
C38   C42   A    
C15   H24   S    
C18   H6    S    
C3    C46   A    
Cu1   O7    S    
C32   C33   A    
C36   C38   A    
C2    C3    A    
C16   C29   A    
C16   H5    S    
C7    H1    S    
C46   H17   S    
C12   C44   S    
Cu2   O2    S    
C38   C39   A    
C29   H3    S    
C27   H23   S    
C1    C30   S    
C33   C35   A    
C14   H15   S    
C31   C39   A    
C23   O5    A    
C37   C41   A    
C10   C11   A    
C32   H12   S    
C20   C21   A    
Cu1   Cu2   S    
C21   C24   A    
Cu1   O1    S    
C41   H14   S    
C23   O6    A    
C20   H7    S    
C13   C14   A    
C44   C48   A    
Cu2   O8    S    
