data_str_m2_o23_o29_f0_pcu.sym.273
_audit_creation_date              2013-03-05T16:14:04-0500
_audit_creation_method            fapswitch 2.2
_symmetry_space_group_name_H-M    P1
_symmetry_Int_Tables_number       1
_space_group_crystal_system       triclinic
_cell_length_a                    27.782281
_cell_length_b                    14.677818
_cell_length_c                    15.89948
_cell_angle_alpha                 90.004995
_cell_angle_beta                  89.878389
_cell_angle_gamma                 89.792521
_cell_volume                      6483.48470974

loop_
_atom_site_label
_atom_site_type_symbol
_atom_site_description
_atom_site_fract_x
_atom_site_fract_y
_atom_site_fract_z
_atom_type_partial_charge
O1    O     O_R   0.500050 0.424030 0.620640 -0.551570
O2    O     O_R   0.500050 0.575970 0.620640 -0.544747
C1    C     C_R   0.499955 0.500008 0.660067 0.817091
O3    O     O_R   0.569790 0.424080 0.500060 -0.568604
O4    O     O_R   0.569790 0.575920 0.500060 -0.571570
C2    C     C_R   0.592791 0.499791 0.503402 0.846089
Cu1   Cu    Cu3+1 0.500060 0.410080 0.500090 1.111679
Cu2   Cu    Cu3+1 0.500060 0.589920 0.500090 1.085505
O5    O     O_R   0.500050 0.424100 0.379510 -0.555940
O6    O     O_R   0.500050 0.575900 0.379510 -0.573592
O7    O     O_R   0.430320 0.424060 0.500090 -0.529177
O8    O     O_R   0.430320 0.575940 0.500090 -0.564033
C3    C     C_R   0.499974 0.499994 0.340005 0.834030
C4    C     C_R   0.407184 0.500169 0.500932 0.884316
C5    C     C_R   0.824360 0.511649 0.575486 0.668596
O9    O     O_2   0.801136 0.530951 0.648039 -0.469144
N1    N     N_R   0.798853 0.501201 0.502897 -0.435260
C6    C     C_R   0.821220 0.484983 0.427483 0.689768
C7    C     C_R   0.720921 0.575836 0.470158 0.351138
C8    C     C_R   0.670606 0.572150 0.469701 -0.266582
C9    C     C_R   0.671895 0.430472 0.549219 0.074420
C10   C     C_R   0.722496 0.430890 0.546263 0.285168
C11   C     C_R   0.747055 0.503193 0.506592 0.087095
C12   C     C_R   0.898515 0.485434 0.498309 -0.072932
C13   C     C_R   0.874392 0.502094 0.575015 -0.015296
C14   C     C_R   0.900670 0.509315 0.649743 -0.093555
C15   C     C_R   0.872052 0.476322 0.422781 -0.148472
C16   C     C_R   0.645798 0.499877 0.507561 -0.203503
H1    H     H_    0.883073 0.524863 0.708922 0.210570
C17   C     C_R   0.353896 0.499863 0.499861 -0.276470
C18   C     C_R   0.025114 0.456156 0.573737 -0.092399
C19   C     C_R   0.024966 0.489324 0.422755 0.099851
C20   C     C_R   0.050455 0.473576 0.498641 0.050784
C21   C     C_R   0.050648 0.420499 0.643840 0.238610
C22   C     C_R   0.101447 0.415322 0.642189 0.159642
C23   C     C_R   0.127253 0.450422 0.571967 -0.153753
C24   C     C_R   0.101282 0.477389 0.499548 -0.076284
C25   C     C_R   0.125975 0.508653 0.427513 -0.014352
C26   C     C_R   0.176114 0.515653 0.429330 0.607626
N2    N     N_R   0.200974 0.489786 0.499314 -0.447377
C27   C     C_R   0.178083 0.458157 0.569767 0.635635
C28   C     C_R   0.276283 0.566156 0.539677 0.169242
C29   C     C_R   0.326953 0.567709 0.542989 0.070923
C30   C     C_R   0.329521 0.429204 0.456929 0.241192
C31   C     C_R   0.279178 0.425503 0.458227 0.125950
C32   C     C_R   0.252638 0.494346 0.498500 0.137394
O10   O     O_2   0.204871 0.436984 0.637454 -0.467897
C33   C     C_R   0.974919 0.474777 0.574868 0.099778
C34   C     C_R   0.949264 0.477919 0.497863 0.053023
C35   C     C_R   0.974381 0.475201 0.420818 -0.091750
C36   C     C_R   0.950107 0.495474 0.649731 -0.099514
H2    H     H_    0.968823 0.505477 0.708402 0.197457
O11   O     O_2   0.793910 0.478857 0.357969 -0.472355
C37   C     C_R   0.897360 0.456267 0.346968 0.161131
H3    H     H_    0.650501 0.626642 0.439899 0.220793
C38   C     C_R   0.050451 0.523578 0.353066 -0.101454
C39   C     C_R   0.100121 0.533334 0.355496 -0.106549
O12   O     O_2   0.200061 0.547712 0.361611 -0.487108
C40   C     C_R   0.948250 0.457931 0.345759 0.241791
H4    H     H_    0.032178 0.547578 0.297464 0.198098
H5    H     H_    0.118203 0.560059 0.300386 0.208668
C41   C     C_3   0.462442 0.418631 0.949588 0.160137
C42   C     C_3   0.475921 0.596291 0.950866 0.161476
C43   C     C_3   0.482828 0.599892 0.050504 0.191003
C44   C     C_3   0.459215 0.424220 0.050177 0.181187
C45   C     C_1   0.498772 0.499984 0.250721 -0.069840
C46   C     C_3   0.496211 0.500083 0.916276 -0.122767
C47   C     C_3   0.495372 0.500237 0.083161 -0.066187
C48   C     C_3   0.546481 0.474098 0.049103 -0.481147
C49   C     C_3   0.549517 0.484904 0.952243 0.244802
C50   C     C_1   0.497306 0.500023 0.175398 0.080701
C51   C     C_1   0.497735 0.500119 0.824497 0.075837
C52   C     C_1   0.498925 0.500050 0.749241 -0.049283
H6    H     H_    0.555166 0.402775 0.066361 0.221593
H7    H     H_    0.575142 0.514147 0.080282 0.227238
C53   C     C_3   0.498434 0.946190 0.410212 -0.110276
C54   C     C_3   0.496248 0.053628 0.410185 -0.102276
C55   C     C_3   0.547881 0.943219 0.545636 0.245186
C56   C     C_3   0.549704 0.054350 0.541581 0.234591
H8    H     H_    0.526922 0.077696 0.371739 0.178781
H9    H     H_    0.532102 0.926604 0.377306 0.180843
N3    N     N_1   0.499020 0.275030 0.498610 -0.117623
N4    N     N_1   0.499020 0.724970 0.498610 -0.124401
C57   C     C_3   0.499821 0.907367 0.502542 -0.228074
C58   C     C_3   0.500440 0.092440 0.502342 -0.238824
C59   C     C_3   0.455014 0.054698 0.550106 0.093043
C60   C     C_3   0.453252 0.947085 0.547304 0.082028
C61   C     C_1   0.499421 0.195423 0.499651 0.381817
C62   C     C_1   0.499107 0.804529 0.499865 0.373893
H10   H     H_    0.422966 0.930011 0.504401 0.144027
H11   H     H_    0.423304 0.076649 0.512496 0.161464
I1    I     I_    0.636756 0.326744 0.621233 -0.002384
N5    N     N_R   0.744842 0.653393 0.433691 0.171466
O13   O     O_R   0.723182 0.702840 0.377238 -0.277205
O14   O     O_R   0.786316 0.680345 0.462068 -0.301058
I2    I     I_    0.862363 0.409967 0.234041 0.049606
N6    N     N_R   0.355783 0.361374 0.410778 0.162059
O15   O     O_R   0.379733 0.383907 0.343506 -0.313975
O16   O     O_R   0.357954 0.278038 0.438432 -0.278069
I3    I     I_    0.242804 0.315865 0.397522 -0.049567
N7    N     N_R   0.973059 0.428877 0.271012 0.125038
O17   O     O_R   0.002021 0.359060 0.273635 -0.279967
O18   O     O_R   0.968699 0.474692 0.201333 -0.293431
I4    I     I_    0.386593 0.442275 0.099151 -0.066547
I5    I     I_    0.425836 0.669075 0.121604 -0.101019
I6    I     I_    0.393888 0.401241 0.883893 -0.084987
I7    I     I_    0.402878 0.629519 0.911403 -0.081479
I8    I     I_    0.501989 0.716258 0.883232 0.012658
I9    I     I_    0.481717 0.284475 0.899936 -0.016307
N8    N     N_R   0.749378 0.357218 0.582647 0.155206
O19   O     O_R   0.749047 0.344857 0.663669 -0.238216
O20   O     O_R   0.778831 0.309703 0.536279 -0.298186
I10   I     I_    0.538517 0.694589 0.093362 -0.151147
I11   I     I_    0.474526 0.295174 0.115167 -0.129582
I12   I     I_    0.593640 0.375977 0.900712 -0.102133
I13   I     I_    0.603413 0.585323 0.919601 -0.112754
N9    N     N_R   0.551093 0.906168 0.632562 0.193008
O21   O     O_R   0.566912 0.823564 0.644649 -0.273759
O22   O     O_R   0.532081 0.947433 0.696851 -0.184673
N10   N     N_R   0.561314 0.093771 0.624738 0.193204
O23   O     O_R   0.601587 0.070274 0.660704 -0.215378
O24   O     O_R   0.539260 0.165603 0.653642 -0.275820
I14   I     I_    0.610043 0.878949 0.480421 -0.115603
I15   I     I_    0.608664 0.111308 0.464514 -0.152542
N11   N     N_R   0.438948 0.904869 0.627739 0.197094
O25   O     O_R   0.397461 0.927230 0.660045 -0.238682
O26   O     O_R   0.460041 0.832001 0.656415 -0.260913
N12   N     N_R   0.446938 0.097414 0.632913 0.194594
O27   O     O_R   0.420372 0.170483 0.637589 -0.279880
O28   O     O_R   0.463438 0.062746 0.702302 -0.166329
I16   I     I_    0.446286 0.877110 0.330351 -0.165687
I17   I     I_    0.437971 0.116390 0.338584 -0.082652
I18   I     I_    0.361426 0.667491 0.620858 -0.076294
I19   I     I_    0.233676 0.671853 0.595510 -0.108873
I20   I     I_    0.135441 0.340936 0.742763 0.039668
N13   N     N_R   0.025101 0.377508 0.711623 0.125440
O29   O     O_R   0.994621 0.312588 0.695947 -0.274781
O30   O     O_R   0.030363 0.406084 0.788541 -0.289923

loop_
_geom_bond_atom_site_label_1
_geom_bond_atom_site_label_2
_geom_bond_distance
_ccdc_geom_bond_type
N5    O13   1.301450 A    
Cu2   N4    1.982488 S    
C44   I11   2.198343 S    
C7    C8    1.399145 A    
C12   C15   1.415939 A    
C56   C58   1.604110 S    
N12   O27   1.301743 A    
C53   C57   1.575260 S    
N6    O15   1.301838 A    
C15   C37   1.424368 A    
C43   I5    2.190123 S    
C58   C59   1.573974 S    
N10   O23   1.302986 A    
Cu1   O7    1.947635 S    
N7    O17   1.301336 A    
C41   C46   1.611250 S    
C35   C40   1.421438 A    
C43   C47   1.589915 S    
C23   C24   1.415841 A    
C46   C51   1.459765 S    
C59   H11   1.112540 S    
N9    O22   1.298437 A    
O4    C2    1.286375 A    
C53   I16   2.181180 S    
C54   H8    1.106653 S    
C5    O9    1.350093 S    
C38   C39   1.388495 A    
Cu1   O5    1.928192 S    
C21   C22   1.413278 A    
C28   C32   1.406365 A    
C29   I18   2.147087 S    
O5    C3    1.278873 A    
N8    O19   1.300958 A    
C6    O11   1.345107 S    
C33   C36   1.406842 A    
C2    C16   1.474293 S    
C22   C23   1.423166 A    
C47   C48   1.565030 S    
C10   N8    1.434514 S    
C18   C20   1.408683 A    
C37   I2    2.154756 S    
C7    N5    1.441412 S    
C3    C45   1.420041 S    
C54   C58   1.576745 S    
N5    O14   1.301224 A    
C9    C10   1.406538 A    
C17   C30   1.416706 A    
C23   C27   1.417488 A    
C4    C17   1.480625 S    
C8    H3    1.083589 S    
N6    O16   1.301087 A    
N10   O24   1.300887 A    
C37   C40   1.414224 A    
N4    C62   1.167934 T    
C42   C46   1.614653 S    
C59   N12   1.474589 S    
C36   H2    1.079214 S    
C40   N7    1.436537 S    
Cu1   Cu2   2.639657 S    
C55   N9    1.488016 S    
C53   C54   1.577901 S    
N13   O30   1.301559 A    
C22   I20   2.154131 S    
C26   N2    1.364093 A    
C59   C60   1.581087 S    
C51   C52   1.196928 T    
C8    C16   1.402247 A    
O3    Cu1   1.948865 S    
C13   C14   1.400038 A    
C31   C32   1.402574 A    
C26   O12   1.350064 S    
O6    C3    1.278954 A    
C20   C24   1.413522 A    
C38   H4    1.078895 S    
O1    C1    1.279245 A    
C54   I17   2.182498 S    
C7    C11   1.412759 A    
C24   C25   1.411369 A    
C25   C39   1.399985 A    
C30   N6    1.433290 S    
C45   C50   1.198383 T    
C21   N13   1.436488 S    
Cu2   O8    1.949113 S    
C44   C47   1.593507 S    
C56   N10   1.479858 S    
N1    C6    1.369750 A    
C27   O10   1.345514 S    
C18   C21   1.421357 A    
C48   H6    1.108127 S    
N1    C11   1.440339 S    
C12   C13   1.411260 A    
C55   I14   2.219920 S    
C19   C35   1.421703 A    
O3    C2    1.285056 A    
N2    C27   1.368936 A    
C9    C16   1.413843 A    
O8    C4    1.286608 A    
C18   C33   1.420175 A    
N11   O25   1.301822 A    
C17   C29   1.419326 A    
C28   C29   1.409091 A    
N2    C32   1.437159 S    
C42   I7    2.178953 S    
C60   N11   1.475527 S    
C30   C31   1.400022 A    
N7    O18   1.301671 A    
C58   C61   1.512339 S    
C12   C34   1.413851 A    
C5    N1    1.364516 A    
C33   C34   1.418666 A    
C43   I10   2.193157 S    
C41   C44   1.603714 S    
O1    Cu1   1.927570 S    
O2    Cu2   1.927605 S    
C6    C15   1.419292 A    
N13   O29   1.301489 A    
C31   I3    2.134964 S    
N12   O28   1.298764 A    
C53   H9    1.107822 S    
O4    Cu2   1.947385 S    
C39   H5    1.083328 S    
C41   I6    2.189854 S    
C57   C60   1.584548 S    
C49   I12   2.170598 S    
C56   I15   2.210234 S    
C28   I19   2.139644 S    
C46   C49   1.603474 S    
C49   I13   2.167191 S    
C19   C20   1.418852 A    
O2    C1    1.279156 A    
N9    O21   1.302550 A    
C55   C56   1.633394 S    
C25   C26   1.397474 A    
C41   I9    2.185793 S    
C47   C50   1.467620 S    
N3    C61   1.168583 T    
O7    C4    1.286870 A    
C48   H7    1.109210 S    
C48   C49   1.550326 S    
C1    C52   1.418040 S    
N8    O20   1.301023 A    
C5    C13   1.396551 A    
C42   C43   1.597078 S    
C55   C57   1.593142 S    
Cu1   N3    1.982693 S    
C14   H1    1.083345 S    
Cu2   O6    1.928156 S    
C34   C35   1.408994 A    
C57   C62   1.510240 S    
C60   H10   1.113561 S    
N11   O26   1.300734 A    
C10   C11   1.411783 A    
C44   I4    2.176402 S    
C42   I8    2.188097 S    
C14   C36   1.387680 A    
C19   C38   1.407531 A    
C9    I1    2.142046 S    
