data_str_m2_o9_o17_f0_pcu.sym.5
_audit_creation_date              2012-10-26T21:14:55-0400
_audit_creation_method            fapswitch 2.2
_symmetry_space_group_name_H-M    P1
_symmetry_Int_Tables_number       1
_space_group_crystal_system       triclinic
_cell_length_a                    15.065884
_cell_length_b                    10.869776
_cell_length_c                    13.713863
_cell_angle_alpha                 90.368588
_cell_angle_beta                  89.821875
_cell_angle_gamma                 89.646779
_cell_volume                      2245.72010988

loop_
_atom_site_label
_atom_site_type_symbol
_atom_type_description
_atom_site_fract_x
_atom_site_fract_y
_atom_site_fract_z
_atom_type_partial_charge
C1    C     C_R   0.497447 0.262228 0.499418 0.550111
C2    C     C_R   0.535258 0.883879 0.684291 0.022554
C3    C     C_R   0.494812 0.121821 0.239092 -0.049817
C4    C     C_R   0.466893 0.879595 0.753907 -0.093187
C5    C     C_R   0.463522 0.173773 0.152308 0.284309
C6    C     C_R   0.483043 0.832580 0.848673 0.280942
C7    C     C_R   0.376869 0.224766 0.150945 -0.104822
C8    C     C_R   0.568433 0.788151 0.869571 -0.064773
C9    C     C_R   0.479151 0.933147 0.415707 -0.152725
C10   C     C_R   0.516084 0.067369 0.584655 -0.157161
C11   C     C_R   0.500651 0.871925 0.502155 -0.001854
C12   C     C_R   0.500854 0.737956 0.500657 0.551789
C13   C     C_R   0.495092 0.128462 0.498281 -0.002720
C14   C     C_R   0.517936 0.940103 0.588228 -0.029300
C15   C     C_R   0.473974 0.060587 0.413230 -0.033420
C16   C     C_R   0.328535 0.500189 0.500097 0.548135
C17   C     C_R   0.671458 0.500247 0.499855 0.550326
C18   C     C_R   0.576467 0.473695 0.793379 0.027459
C19   C     C_R   0.423945 0.527595 0.206550 0.039241
C20   C     C_R   0.423168 0.524053 0.794164 0.046878
C21   C     C_R   0.576402 0.472412 0.206143 0.054212
C22   C     C_R   0.420700 0.521648 0.897182 0.011166
C23   C     C_R   0.047150 0.444134 0.327577 -0.137508
C24   C     C_R   0.578864 0.471916 0.103059 0.023851
C25   C     C_R   0.499820 0.498197 0.948380 -0.005814
C26   C     C_R   0.500284 0.498616 0.051763 0.011638
C27   C     C_R   0.578388 0.473673 0.896157 -0.073088
C28   C     C_R   0.421991 0.525542 0.103889 -0.053217
C29   C     C_R   0.341185 0.541249 0.950242 0.280749
C30   C     C_R   0.657476 0.444924 0.050027 0.282164
C31   C     C_R   0.343023 0.547073 0.052707 -0.114063
C32   C     C_R   0.657006 0.449207 0.947447 -0.122371
C33   C     C_R   0.814117 0.529794 0.585514 -0.143227
C34   C     C_R   0.952804 0.560634 0.671368 -0.137574
C35   C     C_R   0.185864 0.472610 0.414013 -0.143210
C36   C     C_R   0.768239 0.501041 0.499604 -0.012897
C37   C     C_R   0.231742 0.500829 0.500059 -0.012837
C38   C     C_R   0.814951 0.473250 0.413532 -0.136238
C39   C     C_R   0.185025 0.530306 0.585744 -0.145163
C40   C     C_R   0.907428 0.473089 0.412957 0.011369
C41   C     C_R   0.092537 0.531265 0.586120 0.009042
C42   C     C_R   0.953467 0.501962 0.499524 0.061274
C43   C     C_R   0.046506 0.501922 0.499633 0.062512
C44   C     C_R   0.906553 0.530871 0.585996 0.011743
C45   C     C_R   0.323358 0.221554 0.234234 -0.156626
C46   C     C_R   0.093419 0.472722 0.413224 0.011653
C47   C     C_R   0.954596 0.444420 0.327422 -0.133571
C48   C     C_R   0.045318 0.561263 0.671339 -0.141739
C49   C     C_3   0.223686 0.440894 0.882195 -0.028098
C50   C     C_3   0.157832 0.405180 0.961652 -0.390520
C51   C     C_3   0.743354 0.298627 0.124578 -0.020937
C52   C     C_3   0.790352 0.223207 0.045529 -0.376023
C53   C     C_3   0.480191 0.162588 0.983762 -0.010747
C54   C     C_3   0.549811 0.131722 0.906824 -0.355896
C55   C     C_3   0.336915 0.877759 0.900909 -0.007053
C56   C     C_R   0.635970 0.790170 0.799524 -0.168356
C57   C     C_3   0.278817 0.880032 0.991838 -0.357137
C58   C     C_R   0.355030 0.168324 0.319775 -0.084170
C59   C     C_R   0.619755 0.838589 0.707274 -0.089039
C60   C     C_R   0.440895 0.118047 0.322635 0.010450
Cu1   Cu    Cu3+1 0.500010 0.499980 0.597420 0.932559
Cu2   Cu    Cu3+1 0.499990 0.500020 0.402580 0.943502
H1    H     H_    0.777957 0.552334 0.651843 0.114136
H2    H     H_    0.718252 0.431913 0.907913 0.109715
H3    H     H_    0.779463 0.450637 0.347210 0.124913
H4    H     H_    0.220562 0.553578 0.651873 0.120890
H5    H     H_    0.919933 0.422194 0.260525 0.124209
H6    H     H_    0.079826 0.585375 0.737872 0.119456
H7    H     H_    0.082542 0.421623 0.260814 0.100343
H8    H     H_    0.917426 0.583575 0.738038 0.106235
H9    H     H_    0.350725 0.269161 0.086776 0.087161
H10   H     H_    0.582659 0.751825 0.941220 0.138604
H11   H     H_    0.257298 0.261202 0.232580 0.097657
H12   H     H_    0.222024 0.449752 0.347783 0.112727
H13   H     H_    0.701265 0.754861 0.817160 0.107277
H14   H     H_    0.312875 0.166549 0.383878 0.110825
H15   H     H_    0.672846 0.841123 0.653904 0.113128
H16   H     H_    0.561620 0.084500 0.241493 0.112715
H17   H     H_    0.402414 0.914173 0.732634 0.077625
H18   H     H_    0.273667 0.365586 0.871513 0.102422
H19   H     H_    0.187019 0.447761 0.812460 0.142759
H20   H     H_    0.108564 0.480311 0.973277 0.163637
H21   H     H_    0.122281 0.320371 0.939441 0.099420
H22   H     H_    0.193116 0.386866 0.031030 0.126724
H23   H     H_    0.462829 0.881594 0.350257 0.140602
H24   H     H_    0.678239 0.256142 0.142777 0.163250
H25   H     H_    0.783879 0.293571 0.191936 0.129321
H26   H     H_    0.855319 0.265272 0.027540 0.153349
H27   H     H_    0.801820 0.128047 0.071830 0.106411
H28   H     H_    0.749059 0.218738 0.978799 0.143003
H29   H     H_    0.445377 0.247913 0.960829 0.125406
H30   H     H_    0.432464 0.085084 0.986931 0.150086
H31   H     H_    0.586431 0.046889 0.927306 0.167728
H32   H     H_    0.517213 0.117298 0.835269 0.094611
H33   H     H_    0.597716 0.208139 0.900017 0.149394
H34   H     H_    0.531415 0.118856 0.650414 0.131597
H35   H     H_    0.303979 0.819922 0.844541 0.160340
H36   H     H_    0.342709 0.974419 0.875527 0.096696
H37   H     H_    0.310756 0.935686 0.050037 0.146946
H38   H     H_    0.213244 0.921494 0.974500 0.091242
H39   H     H_    0.268416 0.785289 0.018819 0.184420
H40   H     H_    0.636615 0.452570 0.753513 0.124011
H41   H     H_    0.363986 0.550073 0.246353 0.123113
H42   H     H_    0.363430 0.545677 0.754512 0.153049
H43   H     H_    0.635735 0.450226 0.246258 0.146592
H44   H     H_    0.281993 0.565813 0.092245 0.102474
N1    N     N_R   0.499960 0.499900 0.743810 -0.243434
N2    N     N_R   0.500040 0.500100 0.256190 -0.243580
O1    O     O_R   0.500000 0.319630 0.582270 -0.509712
O2    O     O_3   0.737042 0.423843 0.097441 -0.585510
O3    O     O_3   0.522553 0.180751 0.074361 -0.584409
O4    O     O_3   0.420877 0.827865 0.924431 -0.563968
O5    O     O_R   0.500000 0.680370 0.417730 -0.503285
O6    O     O_R   0.499990 0.319660 0.417730 -0.488059
O7    O     O_R   0.500010 0.680340 0.582270 -0.484269
O8    O     O_R   0.370260 0.499960 0.582280 -0.522471
O9    O     O_R   0.629740 0.500040 0.417720 -0.517787
O10   O     O_R   0.370250 0.499990 0.417740 -0.515997
O11   O     O_R   0.629750 0.500010 0.582260 -0.516738
O12   O     O_3   0.261206 0.557438 0.902705 -0.589730

loop_
_geom_bond_atom_site_label_1
_geom_bond_atom_site_label_2
_ccdc_geom_bond_type
C40   C47   A    
C38   C40   A    
C35   H12   S    
C22   C29   A    
C55   O4    S    
Cu1   O11   S    
C15   C60   S    
C23   H7    S    
C52   H28   S    
Cu1   O1    S    
C59   H15   S    
C58   H14   S    
C39   C41   A    
C53   C54   S    
C30   O2    S    
C7    C45   A    
C35   C37   A    
C24   C26   A    
Cu2   O6    S    
C7    H9    S    
C11   C14   A    
C49   O12   S    
Cu2   N2    S    
C58   C60   A    
C57   H37   S    
C33   C36   A    
C45   H11   S    
C18   H40   S    
C49   H19   S    
C18   N1    A    
C54   H31   S    
C9    H23   S    
C19   H41   S    
Cu2   O9    S    
C22   C25   A    
Cu1   O7    S    
C17   C36   S    
C34   H8    S    
C17   O9    A    
C16   C37   S    
C20   N1    A    
C1    O1    A    
C3    C60   A    
C53   O3    S    
C40   C42   A    
C56   H13   S    
C41   C43   A    
C8    C56   A    
C52   H27   S    
C42   C44   A    
C53   H30   S    
C2    C14   S    
C16   O8    A    
C51   H24   S    
C47   H5    S    
C50   H21   S    
C29   O12   S    
C45   C58   A    
C8    H10   S    
C23   C47   A    
C50   H22   S    
C51   C52   S    
C52   H26   S    
C34   C44   A    
C32   H2    S    
Cu2   O5    S    
C4    C6    A    
C10   C14   A    
C51   H25   S    
C5    C7    A    
C2    C59   A    
C6    C8    A    
C5    O3    S    
C25   C26   A    
C57   H38   S    
C2    C4    A    
C53   H29   S    
C54   H32   S    
C16   O10   A    
C38   H3    S    
C10   H34   S    
C33   H1    S    
C55   H35   S    
Cu1   O8    S    
C48   H6    S    
C19   C28   A    
C9    C11   A    
C54   H33   S    
C4    H17   S    
C20   C22   A    
C51   O2    S    
C55   C57   S    
C31   H44   S    
C1    C13   S    
C1    O6    A    
C50   H20   S    
C12   O5    A    
C27   C32   A    
C33   C44   A    
C6    O4    S    
C28   C31   A    
C18   C27   A    
C3    C5    A    
C10   C13   A    
C11   C12   S    
C56   C59   A    
C20   H42   S    
C25   C27   A    
C57   H39   S    
C26   C28   A    
C49   H18   S    
C12   O7    A    
C13   C15   A    
C9    C15   A    
C37   C39   A    
C19   N2    A    
C30   C32   A    
C3    H16   S    
C55   H36   S    
C36   C38   A    
C39   H4    S    
C41   C48   A    
Cu1   Cu2   S    
Cu1   N1    S    
C43   C46   A    
C24   C30   A    
Cu2   O10   S    
C21   N2    A    
C17   O11   A    
C34   C48   A    
C29   C31   A    
C49   C50   S    
C42   C43   A    
C21   C24   A    
C23   C46   A    
C35   C46   A    
C21   H43   S    
