data_str_m2_o10_o29_f0_pcu.sym.138
_audit_creation_date              2012-12-10T16:51:13-0500
_audit_creation_method            fapswitch 2.2
_symmetry_space_group_name_H-M    P1
_symmetry_Int_Tables_number       1
_space_group_crystal_system       triclinic
_cell_length_a                    27.826436
_cell_length_b                    8.725311
_cell_length_c                    7.404346
_cell_angle_alpha                 102.370591
_cell_angle_beta                  93.680872
_cell_angle_gamma                 92.485766
_cell_volume                      1749.35979432

loop_
_atom_site_label
_atom_site_type_symbol
_atom_type_description
_atom_site_fract_x
_atom_site_fract_y
_atom_site_fract_z
_atom_type_partial_charge
C1    C     C_R   0.496926 0.200580 0.455453 0.886294
C2    C     C_R   0.503073 0.799420 0.544547 0.886339
C3    C     C_R   0.101860 0.499488 0.498544 -0.043682
C4    C     C_R   0.898146 0.500323 0.501687 -0.043665
C5    C     C_R   0.124889 0.356677 0.462342 -0.020679
C6    C     C_R   0.875118 0.643134 0.537952 -0.020727
C7    C     C_R   0.097247 0.214800 0.425739 -0.150902
C8    C     C_R   0.902761 0.785011 0.574661 -0.150919
C9    C     C_R   0.130115 0.642093 0.534354 -0.022129
C10   C     C_R   0.869890 0.357718 0.465776 -0.022165
C11   C     C_R   0.354496 0.498188 0.509950 -0.045576
C12   C     C_R   0.645511 0.501717 0.490044 -0.045605
C13   C     C_R   0.971785 0.354584 0.463305 0.044242
C14   C     C_R   0.028221 0.645227 0.536923 0.044251
C15   C     C_R   0.977134 0.645435 0.538013 0.045271
C16   C     C_R   0.022873 0.354375 0.462294 0.045280
C17   C     C_R   0.949256 0.500114 0.501059 0.068469
C18   C     C_R   0.050751 0.499697 0.499200 0.068452
C19   C     C_R   0.942102 0.213696 0.427721 -0.214008
C20   C     C_R   0.057902 0.786116 0.572364 -0.213977
C21   C     C_R   0.892305 0.215647 0.429213 -0.144143
C22   C     C_R   0.107699 0.784166 0.570845 -0.144137
C23   C     C_R   0.407449 0.498182 0.503373 0.801053
C24   C     C_R   0.592553 0.501791 0.496620 0.801058
C25   C     C_R   0.047367 0.213261 0.425381 -0.213029
C26   C     C_R   0.952642 0.786548 0.575050 -0.213053
C27   C     C_2   0.488145 0.035550 0.438912 -0.035413
C28   C     C_2   0.511853 0.964451 0.561091 -0.035403
C29   C     C_R   0.175361 0.359093 0.463549 0.537859
C30   C     C_R   0.824645 0.640718 0.536703 0.537905
C31   C     C_R   0.180487 0.639298 0.533915 0.541647
C32   C     C_R   0.819517 0.360514 0.466169 0.541679
C33   C     C_R   0.277527 0.542925 0.360619 -0.102729
C34   C     C_R   0.722483 0.457511 0.639793 -0.102875
C35   C     C_R   0.327527 0.542317 0.363855 -0.265582
C36   C     C_R   0.672484 0.458144 0.636502 -0.265604
C37   C     C_R   0.330013 0.453094 0.655035 0.133911
C38   C     C_R   0.669997 0.546157 0.344598 0.134061
C39   C     C_R   0.279567 0.454313 0.649039 -0.091537
C40   C     C_R   0.720443 0.544896 0.350648 -0.091549
C41   C     C_R   0.253479 0.498906 0.502910 0.312992
C42   C     C_R   0.746529 0.500909 0.497171 0.313330
Cu1   Cu    Cu3+1 0.505380 0.517380 0.684380 0.938652
Cu2   Cu    Cu3+1 0.494620 0.482620 0.315620 0.938638
H1    H     H_    0.463448 0.375767 0.948211 0.228286
H2    H     H_    0.536554 0.624228 0.051788 0.228280
H3    H     H_    0.260152 0.420517 0.758066 0.141255
H4    H     H_    0.739861 0.578197 0.241360 0.140980
H5    H     H_    0.114087 0.103381 0.396683 0.185455
H6    H     H_    0.885921 0.896432 0.603780 0.185489
H7    H     H_    0.654822 0.423235 0.748781 0.170236
H8    H     H_    0.345193 0.577682 0.251834 0.170183
H9    H     H_    0.742637 0.423676 0.753661 0.151795
H10   H     H_    0.257374 0.577217 0.247043 0.152039
H11   H     H_    0.871356 0.104389 0.400697 0.191959
H12   H     H_    0.128646 0.895425 0.599267 0.191928
H13   H     H_    0.955892 0.098539 0.397461 0.136831
H14   H     H_    0.044109 0.901273 0.602479 0.136770
H15   H     H_    0.029302 0.098250 0.395106 0.134725
H16   H     H_    0.970707 0.901562 0.605487 0.134789
N1    N     N_R   0.201967 0.499111 0.499310 -0.467936
N2    N     N_R   0.798039 0.500701 0.500836 -0.467999
N3    N     N_2   0.486510 0.456430 0.038510 -0.222202
N4    N     N_2   0.513490 0.543570 0.961490 -0.222176
O1    O     O_R   0.503500 0.286120 0.619780 -0.595326
O2    O     O_R   0.496500 0.713880 0.380220 -0.595306
O3    O     O_R   0.494410 0.256780 0.308360 -0.579832
O4    O     O_R   0.505590 0.743220 0.691640 -0.579830
O5    O     O_R   0.434810 0.514700 0.655690 -0.583581
O6    O     O_R   0.565190 0.485300 0.344310 -0.583625
O7    O     O_R   0.425720 0.485350 0.344280 -0.586617
O8    O     O_R   0.574280 0.514650 0.655720 -0.586602
O9    O     O_2   0.197713 0.222745 0.428528 -0.518917
O10   O     O_2   0.802291 0.777063 0.571773 -0.518805
O11   O     O_2   0.792150 0.224371 0.430575 -0.515843
O12   O     O_2   0.207851 0.775446 0.569411 -0.515943
C43   C     C_3   0.356003 0.399618 0.813666 -0.823699
H17   H     H_    0.330447 0.356579 0.903569 0.227821
H18   H     H_    0.378878 0.301489 0.759200 0.229300
H19   H     H_    0.378508 0.499155 0.902105 0.245094
C44   C     C_3   0.644015 0.598950 0.185477 -0.823734
H20   H     H_    0.669577 0.641356 0.095160 0.227583
H21   H     H_    0.621467 0.499244 0.097610 0.245172
H22   H     H_    0.621189 0.697346 0.239387 0.229401
C45   C     C_3   0.448105 0.955068 0.295890 -0.830221
H23   H     H_    0.426849 0.041820 0.240093 0.229336
H24   H     H_    0.463574 0.878415 0.176681 0.261510
H25   H     H_    0.422315 0.885436 0.359537 0.229489
C46   C     C_3   0.551892 0.044934 0.704118 -0.830164
H26   H     H_    0.573148 0.958183 0.759917 0.229345
H27   H     H_    0.577683 0.114568 0.640474 0.229534
H28   H     H_    0.536422 0.121586 0.823325 0.261476

loop_
_geom_bond_atom_site_label_1
_geom_bond_atom_site_label_2
_ccdc_geom_bond_type
Cu1   O8    S    
C8    C26   A    
C14   C18   A    
Cu2   O2    S    
C34   C42   A    
C41   N1    S    
C32   O11   S    
C44   H20   S    
C24   O6    A    
C39   C41   A    
C43   H17   S    
C19   H13   S    
Cu2   O7    S    
C19   C21   A    
C2    O4    A    
C30   O10   S    
C9    C22   A    
C45   H25   S    
C29   O9    S    
C33   H10   S    
C3    C18   A    
C27   C45   S    
C11   C37   A    
C31   N1    A    
C33   C35   A    
Cu1   O4    S    
C1    O1    A    
Cu2   O6    S    
C28   C46   S    
C12   C36   A    
C42   N2    S    
C40   C42   A    
Cu2   N3    S    
C44   H21   S    
Cu1   N4    S    
C5    C29   A    
C43   H18   S    
C10   C21   A    
C29   N1    A    
C13   C19   A    
C45   H24   S    
C14   C20   A    
C7    H5    S    
C4    C6    A    
C5    C7    A    
C15   C26   A    
C6    C8    A    
C2    O2    A    
C45   H23   S    
C37   C43   S    
C23   O5    A    
H1    N3    S    
H2    N4    S    
Cu1   Cu2   S    
C3    C9    A    
C23   O7    A    
Cu1   O1    S    
C46   H28   S    
C36   H7    S    
C4    C17   A    
C6    C30   A    
C20   C22   A    
C30   N2    A    
C38   C44   S    
C46   H27   S    
C20   H14   S    
C8    H6    S    
C35   H8    S    
C44   H22   S    
C24   O8    A    
C39   H3    S    
C43   H19   S    
C16   C25   A    
C15   C17   A    
C40   H4    S    
C21   H11   S    
C3    C5    A    
C22   H12   S    
C12   C24   S    
C7    C25   A    
C13   C17   A    
C33   C41   A    
C11   C35   A    
C32   N2    A    
C37   C39   A    
C38   C40   A    
C31   O12   S    
C26   H16   S    
C11   C23   S    
C1    O3    A    
C34   C36   A    
C12   C38   A    
C9    C31   A    
N3    N4    D    
C10   C32   A    
C34   H9    S    
C16   C18   A    
C13   C16   A    
C27   C28   D    
C1    C27   S    
C14   C15   A    
Cu2   O3    S    
C2    C28   S    
C25   H15   S    
C46   H26   S    
Cu1   O5    S    
C4    C10   A    
