data_str_m2_o10_o16_f0_pcu.sym.145
_audit_creation_date              2012-12-10T16:44:15-0500
_audit_creation_method            fapswitch 2.2
_symmetry_space_group_name_H-M    P1
_symmetry_Int_Tables_number       1
_space_group_crystal_system       triclinic
_cell_length_a                    7.428165
_cell_length_b                    8.692905
_cell_length_c                    13.463623
_cell_angle_alpha                 94.09779
_cell_angle_beta                  77.446729
_cell_angle_gamma                 103.105635
_cell_volume                      826.26684206

loop_
_atom_site_label
_atom_site_type_symbol
_atom_type_description
_atom_site_fract_x
_atom_site_fract_y
_atom_site_fract_z
_atom_type_partial_charge
C1    C     C_R   0.545261 0.800199 0.503107 0.876875
C2    C     C_R   0.422167 0.473858 0.971521 -0.052187
C3    C     C_R   0.466910 0.534158 0.871511 0.022557
C4    C     C_R   0.561808 0.516264 0.032861 0.081715
C5    C     C_R   0.745841 0.603133 0.990513 0.154985
C6    C     C_R   0.782535 0.666018 0.894341 -0.226960
C7    C     C_R   0.641770 0.640097 0.838608 -0.163997
C8    C     C_R   0.521856 0.484803 0.136805 -0.182691
C9    C     C_R   0.846614 0.594151 0.149352 -0.157494
C10   C     C_R   0.337322 0.484768 0.805725 -0.107607
C11   C     C_2   0.570781 0.968048 0.504680 -0.363198
C12   C     C_R   0.399543 0.497014 0.694325 0.797683
C13   C     C_2   0.429031 0.031949 0.495659 -0.364532
C14   C     C_R   0.454647 0.199803 0.497056 0.897118
C15   C     C_R   0.601334 0.509698 0.306006 0.809998
C16   C     C_R   0.888174 0.635615 0.047574 -0.179874
C17   C     C_R   0.660979 0.524981 0.195358 -0.083733
C18   C     C_R   0.155434 0.397658 0.844353 -0.304934
C19   C     C_R   0.109159 0.341232 0.942273 -0.182325
C20   C     C_R   0.242297 0.370543 0.003647 0.579953
Cu1   Cu    Cu3+1 0.321300 0.483160 0.488710 0.962295
Cu2   Cu    Cu3+1 0.678700 0.516840 0.511290 0.954544
H1    H     H_    0.956008 0.625822 0.193429 0.166477
H2    H     H_    0.292381 0.960598 0.487140 0.179585
H3    H     H_    0.010993 0.617495 0.579250 0.222453
H4    H     H_    0.988935 0.382441 0.420809 0.237060
H5    H     H_    0.918480 0.741260 0.863705 0.143941
H6    H     H_    0.029936 0.698322 0.014444 0.147965
H7    H     H_    0.379408 0.440950 0.176209 0.230935
H8    H     H_    0.053173 0.361659 0.796145 0.191123
H9    H     H_    0.971979 0.265082 0.968642 0.181461
H10   H     H_    0.672753 0.704713 0.769087 0.158906
H11   H     H_    0.707420 0.039394 0.513222 0.180115
N1    N     N_2   0.947230 0.542220 0.528320 -0.220372
N2    N     N_2   0.052770 0.457780 0.471680 -0.213480
O1    O     O_R   0.383920 0.714220 0.492660 -0.584061
O2    O     O_R   0.685730 0.742660 0.511730 -0.591304
O3    O     O_R   0.275440 0.478800 0.636790 -0.590327
O4    O     O_R   0.577250 0.507240 0.655860 -0.583649
O5    O     O_R   0.314270 0.257340 0.488270 -0.580728
O6    O     O_R   0.616080 0.285780 0.507340 -0.581110
O7    O     O_R   0.422750 0.492760 0.344140 -0.581020
O8    O     O_R   0.724560 0.521200 0.363210 -0.583941
F1    F     F_    0.195119 0.285526 0.089522 -0.698220

loop_
_geom_bond_atom_site_label_1
_geom_bond_atom_site_label_2
_ccdc_geom_bond_type
C16   H6    S    
C2    C4    A    
C6    C7    A    
C18   H8    S    
C15   O7    A    
C8    C17   A    
C1    C11   S    
C6    H5    S    
C1    O2    A    
H3    N1    S    
C4    C8    A    
C19   H9    S    
C12   O4    A    
C2    C3    A    
C15   O8    A    
C3    C10   A    
C13   C14   S    
C11   C13   D    
Cu1   O5    S    
C10   C12   S    
C10   C18   A    
C14   O6    A    
Cu1   N2    S    
C8    H7    S    
C9    C17   A    
C20   F1    S    
C9    C16   A    
C18   C19   A    
C3    C7    A    
C12   O3    A    
C5    C6    A    
Cu2   N1    S    
Cu2   O6    S    
Cu2   O4    S    
C14   O5    A    
Cu1   O7    S    
H4    N2    S    
C11   H11   S    
C13   H2    S    
C15   C17   S    
N1    N2    D    
Cu1   O1    S    
C9    H1    S    
C5    C16   A    
C7    H10   S    
Cu1   Cu2   S    
Cu2   O2    S    
C2    C20   A    
Cu2   O8    S    
Cu1   O3    S    
C19   C20   A    
C1    O1    A    
C4    C5    A    
