data_str_m3_o18_o20_f0_pcu.sym.205
_audit_creation_date              2012-12-10T18:30:25-0500
_audit_creation_method            fapswitch 2.2
_symmetry_space_group_name_H-M    P1
_symmetry_Int_Tables_number       1
_space_group_crystal_system       triclinic
_cell_length_a                    15.036414
_cell_length_b                    14.170328
_cell_length_c                    15.606436
_cell_angle_alpha                 90.422486
_cell_angle_beta                  82.13306
_cell_angle_gamma                 104.333077
_cell_volume                      3190.23255716

loop_
_atom_site_label
_atom_site_type_symbol
_atom_type_description
_atom_site_fract_x
_atom_site_fract_y
_atom_site_fract_z
_atom_type_partial_charge
C1    C     C_R   0.558366 0.511362 0.338210 0.957453
C2    C     C_R   0.441816 0.488528 0.661678 0.963250
C3    C     C_R   0.555047 0.499145 0.100508 -0.158567
C4    C     C_R   0.446778 0.489903 0.898944 -0.144354
C5    C     C_R   0.643432 0.484876 0.068881 -0.091994
C6    C     C_R   0.359038 0.505372 0.932075 -0.127213
C7    C     C_R   0.486688 0.490487 0.044785 0.039034
C8    C     C_R   0.514871 0.493582 0.954429 0.079788
C9    C     C_R   0.610715 0.505204 0.922962 0.111223
C10   C     C_R   0.390384 0.475815 0.076287 0.121554
C11   C     C_R   0.671901 0.489815 0.979159 0.081103
C12   C     C_R   0.329896 0.494793 0.021594 0.136824
C13   C     C_R   0.150515 0.330523 0.389690 0.006782
C14   C     C_R   0.847499 0.664839 0.617353 -0.011182
C15   C     C_R   0.243653 0.370498 0.397831 0.140249
C16   C     C_R   0.754610 0.626922 0.605363 0.121260
C17   C     C_R   0.206206 0.496441 0.485346 0.771920
C18   C     C_R   0.793960 0.503191 0.515954 0.780324
C19   C     C_R   0.112655 0.466754 0.471176 -0.183206
C20   C     C_R   0.886429 0.531258 0.533175 -0.184044
C21   C     C_R   0.082584 0.375288 0.431980 -0.052749
C22   C     C_R   0.915737 0.621260 0.574543 -0.071642
C23   C     C_R   0.498458 0.329164 0.499644 0.873644
C24   C     C_R   0.501542 0.670836 0.500359 0.874375
C25   C     C_R   0.047449 0.521359 0.500109 -0.151613
C26   C     C_R   0.951575 0.476572 0.505074 -0.119592
C27   C     C_R   0.923603 0.377394 0.485087 0.679830
C28   C     C_R   0.074920 0.620517 0.520891 0.722397
C29   C     C_R   0.986659 0.329542 0.442476 0.000784
C30   C     C_R   0.011869 0.667330 0.564674 0.026097
C31   C     C_1   0.495777 0.226858 0.498943 -0.144335
C32   C     C_1   0.504228 0.773146 0.501063 -0.143234
C33   C     C_1   0.496264 0.141667 0.499044 0.021118
C34   C     C_1   0.503751 0.858339 0.500965 0.021901
C35   C     C_1   0.498728 0.042304 0.499673 0.034421
C36   C     C_1   0.501297 0.957706 0.500338 0.034952
C37   C     C_R   0.594222 0.509296 0.246210 -0.263300
C38   C     C_R   0.406869 0.488477 0.753787 -0.276197
C39   C     C_R   0.703013 0.473303 0.128427 0.625502
C40   C     C_R   0.300124 0.522451 0.873940 0.627696
C41   C     C_R   0.676366 0.480653 0.217337 -0.125477
C42   C     C_R   0.326267 0.518816 0.784574 -0.126059
C43   C     C_R   0.539572 0.527301 0.186216 0.531287
C44   C     C_R   0.461312 0.465909 0.812027 0.587459
N1    N     N_R   0.268300 0.449640 0.447270 -0.163861
N2    N     N_R   0.731700 0.550360 0.552730 -0.155669
O1    O     O_R   0.616880 0.525390 0.394380 -0.573233
O2    O     O_R   0.383120 0.474610 0.605620 -0.573020
O3    O     O_R   0.468100 0.493070 0.360490 -0.563592
O4    O     O_R   0.531900 0.506930 0.639510 -0.555178
O5    O     O_R   0.574410 0.389880 0.516950 -0.522701
O6    O     O_R   0.425590 0.610120 0.483050 -0.521309
O7    O     O_R   0.425630 0.357560 0.483060 -0.618562
O8    O     O_R   0.574370 0.642440 0.516940 -0.616242
Zn1   Zn    Zn3+2 0.599340 0.521580 0.522630 1.042747
Zn2   Zn    Zn3+2 0.400660 0.478420 0.477370 1.038331
N3    N     N_3   0.765127 0.487472 0.945498 -0.346548
H1    H     H_    0.762684 0.431449 0.901258 0.205527
H2    H     H_    0.799161 0.553770 0.913568 0.181934
N4    N     N_3   0.235888 0.492809 0.056184 -0.343444
H3    H     H_    0.236950 0.544192 0.104705 0.208929
H4    H     H_    0.203623 0.423809 0.083967 0.201756
F1    F     F_    0.836387 0.323164 0.512756 -0.635931
F2    F     F_    0.161481 0.675969 0.492767 -0.606512
F3    F     F_    0.522403 0.411715 0.784889 -0.650652
F4    F     F_    0.474677 0.577736 0.210634 -0.662056
N5    N     N_3   0.270514 0.544855 0.725691 -0.333224
H5    H     H_    0.203720 0.499173 0.738758 0.242040
H6    H     H_    0.266170 0.616414 0.737501 0.240829
N6    N     N_3   0.733129 0.459681 0.277640 -0.333189
H7    H     H_    0.799173 0.506701 0.263527 0.240619
H8    H     H_    0.739339 0.388287 0.268570 0.240104
F5    F     F_    0.785403 0.451686 0.101774 -0.641723
F6    F     F_    0.218991 0.545790 0.902666 -0.640786
N7    N     N_3   0.648162 0.544335 0.837356 -0.410513
H9    H     H_    0.684795 0.497956 0.804677 0.233191
H10   H     H_    0.694611 0.611695 0.843019 0.144458
N8    N     N_3   0.349319 0.425371 0.157158 -0.469936
H11   H     H_    0.394379 0.389856 0.180790 0.196265
H12   H     H_    0.329353 0.473853 0.202076 0.254761
N9    N     N_3   0.952288 0.231237 0.417192 -0.465554
H13   H     H_    0.919432 0.188659 0.472383 0.231012
H14   H     H_    0.903072 0.230598 0.375746 0.226980
N10   N     N_3   0.048066 0.765632 0.589230 -0.380095
H15   H     H_    0.039523 0.769019 0.656646 0.224097
H16   H     H_    0.014281 0.811783 0.562080 0.207397
F7    F     F_    0.767863 0.438761 0.453992 -0.620048
F8    F     F_    0.233679 0.561373 0.546532 -0.613178
N11   N     N_3   0.684219 0.673309 0.641757 -0.372828
H17   H     H_    0.700819 0.744784 0.616930 0.172067
H18   H     H_    0.682582 0.675749 0.708681 0.174144
N12   N     N_3   0.312385 0.321611 0.362382 -0.377816
H19   H     H_    0.297102 0.253216 0.393481 0.192051
H20   H     H_    0.306327 0.309278 0.297292 0.185803
N13   N     N_3   0.128690 0.245678 0.338226 -0.461863
H21   H     H_    0.086116 0.256522 0.293516 0.224594
H22   H     H_    0.096956 0.184636 0.378406 0.222494
N14   N     N_3   0.871317 0.745397 0.673150 -0.474064
H23   H     H_    0.850683 0.804615 0.650233 0.185771
H24   H     H_    0.836188 0.725365 0.735380 0.187956

loop_
_geom_bond_atom_site_label_1
_geom_bond_atom_site_label_2
_ccdc_geom_bond_type
C24   O6    A    
C7    C10   A    
C27   C29   A    
C17   F8    S    
C35   C36   T    
C4    C8    A    
N9    H13   S    
C10   N8    S    
C7    C8    A    
C39   C41   A    
C25   C28   A    
C38   C44   A    
C3    C43   A    
C26   C27   A    
C13   N13   S    
C19   C21   A    
N10   H16   S    
C5    C11   A    
C3    C7    A    
C6    C12   A    
N8    H12   S    
N3    H2    S    
C24   O8    A    
C18   N2    A    
C18   C20   A    
N4    H4    S    
C2    O4    A    
C33   C35   S    
C15   N12   S    
N13   H21   S    
N1    Zn2   S    
C8    C9    A    
N2    Zn1   S    
C31   C33   T    
C14   N14   S    
N6    H7    S    
N11   H18   S    
O5    Zn1   S    
C1    C37   S    
C40   C42   A    
C16   N11   S    
C37   C41   A    
C44   F3    S    
C10   C12   A    
N9    H14   S    
C23   O7    A    
N5    H5    S    
C6    C40   A    
N10   H15   S    
C4    C6    A    
C16   N2    A    
N8    H11   S    
C1    O1    A    
C4    C44   A    
C2    O2    A    
C25   C26   A    
C21   C29   A    
N4    H3    S    
N5    H6    S    
C23   C31   S    
C37   C43   A    
N7    H9    S    
C24   C32   S    
C29   N9    S    
N7    H10   S    
C2    C38   S    
C23   O5    A    
N12   H20   S    
C13   C21   A    
C9    C11   A    
C27   F1    S    
C28   F2    S    
C20   C22   A    
N14   H24   S    
C13   C15   A    
C42   N5    S    
C14   C16   A    
C15   N1    A    
O1    Zn1   S    
O7    Zn2   S    
O2    Zn2   S    
O8    Zn1   S    
C22   C30   A    
O4    Zn1   S    
C17   N1    A    
C3    C5    A    
N13   H22   S    
C38   C42   A    
O3    Zn2   S    
C18   F7    S    
C14   C22   A    
C5    C39   A    
N3    H1    S    
C20   C26   A    
C43   F4    S    
C28   C30   A    
N12   H19   S    
C17   C19   A    
C40   F6    S    
C34   C36   S    
C39   F5    S    
C30   N10   S    
C19   C25   A    
C12   N4    S    
N14   H23   S    
N6    H8    S    
C9    N7    S    
N11   H17   S    
C11   N3    S    
C1    O3    A    
O6    Zn2   S    
C32   C34   T    
C41   N6    S    
