data_str_m2_o7_o8_f0_pcu.sym.214
_audit_creation_date              2012-12-10T19:32:27-0500
_audit_creation_method            fapswitch 2.2
_symmetry_space_group_name_H-M    P1
_symmetry_Int_Tables_number       1
_space_group_crystal_system       triclinic
_cell_length_a                    16.504747
_cell_length_b                    17.145254
_cell_length_c                    17.738528
_cell_angle_alpha                 87.584775
_cell_angle_beta                  91.010185
_cell_angle_gamma                 93.701532
_cell_volume                      5004.13373401

loop_
_atom_site_label
_atom_site_type_symbol
_atom_type_description
_atom_site_fract_x
_atom_site_fract_y
_atom_site_fract_z
_atom_type_partial_charge
C1    C     C_R   0.500591 0.499774 0.644699 0.795203
C2    C     C_R   0.499410 0.500225 0.355301 0.795206
C3    C     C_R   0.424073 0.501089 0.232099 -0.198412
C4    C     C_R   0.575932 0.498954 0.767899 -0.198409
C5    C     C_R   0.498076 0.500451 0.272383 -0.072165
C6    C     C_R   0.501926 0.499547 0.727617 -0.072172
C7    C     C_R   0.570921 0.500002 0.232887 -0.192151
C8    C     C_R   0.429078 0.499951 0.767117 -0.192148
C9    C     C_R   0.569875 0.499983 0.154477 -0.203340
C10   C     C_R   0.430125 0.499969 0.845527 -0.203337
C11   C     C_R   0.496245 0.500491 0.114357 0.144022
C12   C     C_R   0.503758 0.499507 0.885644 0.144024
C13   C     C_1   0.498757 0.500158 0.033749 -0.052302
C14   C     C_1   0.501246 0.499839 0.966252 -0.052306
C15   C     C_R   0.170689 0.547606 0.453058 -0.259632
C16   C     C_R   0.829311 0.452397 0.546945 -0.259633
C17   C     C_R   0.256150 0.548989 0.451706 0.383805
C18   C     C_R   0.743850 0.451014 0.548297 0.383797
C19   C     C_R   0.255646 0.449978 0.549102 0.090753
C20   C     C_R   0.744354 0.550019 0.450896 0.090752
C21   C     C_R   0.169617 0.447735 0.551293 -0.268005
C22   C     C_R   0.830383 0.552262 0.448705 -0.268005
C23   C     C_R   0.489894 0.348807 0.501322 0.851397
C24   C     C_R   0.510106 0.651193 0.498678 0.851398
C25   C     C_R   0.126246 0.497320 0.502559 0.098298
C26   C     C_R   0.873754 0.502680 0.497442 0.098299
C27   C     C_1   0.037021 0.498499 0.501451 -0.024196
C28   C     C_1   0.962979 0.501501 0.498549 -0.024197
C29   C     C_R   0.483591 0.262817 0.502280 -0.184687
C30   C     C_R   0.516409 0.737183 0.497721 -0.184687
C31   C     C_R   0.554461 0.222356 0.500175 -0.330855
C32   C     C_R   0.445539 0.777644 0.499828 -0.330854
C33   C     C_R   0.550045 0.141299 0.500416 -0.200943
C34   C     C_R   0.449955 0.858701 0.499588 -0.200942
C35   C     C_R   0.474115 0.098492 0.502780 0.301613
C36   C     C_R   0.525885 0.901508 0.497223 0.301613
C37   C     C_R   0.402511 0.138524 0.505479 0.042215
C38   C     C_R   0.597489 0.861476 0.494521 0.042214
C39   C     C_R   0.407410 0.220561 0.505198 0.579781
C40   C     C_R   0.592590 0.779439 0.494801 0.579781
C41   C     C_R   0.422281 0.501153 0.153111 0.209305
C42   C     C_R   0.577725 0.498891 0.846887 0.209291
Cu1   Cu    Cu3+1 0.419580 0.500000 0.500020 0.965844
Cu2   Cu    Cu3+1 0.580420 0.500000 0.499980 0.965840
H1    H     H_    0.386262 0.746651 0.501903 0.197953
H2    H     H_    0.613738 0.253349 0.498101 0.197953
H3    H     H_    0.287783 0.411285 0.587061 0.152371
H4    H     H_    0.712217 0.588710 0.412934 0.152374
H5    H     H_    0.137442 0.407550 0.590771 0.147944
H6    H     H_    0.862558 0.592444 0.409224 0.147945
H7    H     H_    0.393623 0.887573 0.501339 0.178520
H8    H     H_    0.606377 0.112426 0.498667 0.178520
H9    H     H_    0.367398 0.501482 0.261989 0.165191
H10   H     H_    0.632610 0.498596 0.738005 0.165201
H11   H     H_    0.628845 0.499575 0.262516 0.159349
H12   H     H_    0.371151 0.500342 0.737488 0.159342
H13   H     H_    0.626797 0.499510 0.124973 0.143025
H14   H     H_    0.373201 0.500406 0.875033 0.143026
H15   H     H_    0.138600 0.586425 0.414832 0.145698
H16   H     H_    0.861400 0.413581 0.585173 0.145697
N1    N     N_2   0.467121 0.015503 0.502614 -0.234656
N2    N     N_2   0.532880 0.984497 0.497388 -0.234656
N3    N     N_R   0.298780 0.499980 0.500030 -0.171724
N4    N     N_R   0.701220 0.500020 0.499970 -0.171725
O1    O     O_R   0.432070 0.499990 0.608760 -0.593943
O2    O     O_R   0.567930 0.500010 0.391240 -0.593946
O3    O     O_R   0.567880 0.500000 0.608730 -0.590421
O4    O     O_R   0.432120 0.500000 0.391270 -0.590417
O5    O     O_R   0.424660 0.386070 0.500710 -0.517481
O6    O     O_R   0.575340 0.613930 0.499290 -0.517480
O7    O     O_R   0.560480 0.386080 0.500680 -0.604517
O8    O     O_R   0.439520 0.613920 0.499320 -0.604514
C43   C     C_3   0.294922 0.606825 0.394669 -0.827975
H17   H     H_    0.360957 0.609337 0.392331 0.271315
H18   H     H_    0.271706 0.592750 0.337346 0.199275
H19   H     H_    0.277856 0.666589 0.406841 0.199484
C44   C     C_3   0.705078 0.393181 0.605337 -0.827963
H20   H     H_    0.639042 0.390662 0.607668 0.271318
H21   H     H_    0.722151 0.333417 0.593172 0.199477
H22   H     H_    0.728287 0.407264 0.662659 0.199283
C45   C     C_3   0.321145 0.093087 0.508431 -0.771581
H23   H     H_    0.269759 0.131564 0.510386 0.274589
H24   H     H_    0.312623 0.057615 0.457604 0.225686
H25   H     H_    0.318626 0.053405 0.559571 0.224448
C46   C     C_3   0.678855 0.906913 0.491568 -0.771581
H26   H     H_    0.730241 0.868436 0.489610 0.274590
H27   H     H_    0.681372 0.946596 0.440427 0.224449
H28   H     H_    0.687379 0.942384 0.542394 0.225685
F1    F     F_    0.337938 0.258775 0.507832 -0.670268
F2    F     F_    0.662062 0.741225 0.492165 -0.670267
C47   C     C_3   0.340860 0.501899 0.113240 -0.885775
H29   H     H_    0.345375 0.501981 0.050963 0.237208
H30   H     H_    0.302367 0.449347 0.131869 0.237870
H31   H     H_    0.310327 0.554975 0.127871 0.232857
C48   C     C_3   0.659149 0.498197 0.886756 -0.885776
H32   H     H_    0.654632 0.498112 0.949033 0.237211
H33   H     H_    0.689718 0.445142 0.872124 0.232858
H34   H     H_    0.697605 0.550772 0.868124 0.237876

loop_
_geom_bond_atom_site_label_1
_geom_bond_atom_site_label_2
_ccdc_geom_bond_type
C38   C40   A    
Cu1   O8    S    
C11   C13   S    
C32   H1    S    
C23   O5    A    
Cu2   O2    S    
C48   H32   S    
C7    H11   S    
C8    H12   S    
C21   H5    S    
C45   H23   S    
C48   H34   S    
C24   O6    A    
C44   H20   S    
Cu2   N4    S    
C33   H8    S    
C34   H7    S    
C4    C42   A    
C23   C29   S    
C10   H14   S    
C2    O4    A    
C16   H16   S    
C19   H3    S    
C15   C25   A    
Cu2   O7    S    
C7    C9    A    
C43   H17   S    
C12   C42   A    
C33   C35   A    
C19   N3    A    
Cu1   O4    S    
C31   H2    S    
C1    O1    A    
C31   C33   A    
Cu2   O6    S    
C9    H13   S    
C22   H6    S    
C46   H27   S    
Cu1   O5    S    
C13   C14   T    
C17   C43   S    
C43   H18   S    
C37   C45   S    
C36   N2    S    
C45   H24   S    
C44   H21   S    
C16   C26   A    
C37   C39   A    
C38   C46   S    
Cu1   N3    S    
C42   C48   S    
C23   O7    A    
C4    C6    A    
C47   H29   S    
C5    C7    A    
C6    C8    A    
C2    O2    A    
C46   H26   S    
C1    C6    S    
C32   C34   A    
C20   N4    A    
Cu1   Cu2   S    
C47   H30   S    
Cu1   O1    S    
C29   C39   A    
C30   C40   A    
C35   N1    S    
C9    C11   A    
C20   H4    S    
C10   C12   A    
C8    C10   A    
C41   C47   S    
C12   C14   S    
C43   H19   S    
C2    C5    S    
C45   H25   S    
C24   O8    A    
C46   H28   S    
C35   C37   A    
C15   C17   A    
C21   C25   A    
C3    C41   A    
C4    H10   S    
C15   H15   S    
C20   C22   A    
C3    C5    A    
C48   H33   S    
C25   C27   S    
C26   C28   S    
C36   C38   A    
C29   C31   A    
C17   N3    A    
C47   H31   S    
C30   C32   A    
C3    H9    S    
C18   N4    A    
C44   H22   S    
C18   C44   S    
C1    O3    A    
C11   C41   A    
C34   C36   A    
N1    N2    D    
C24   C30   S    
C16   C18   A    
C22   C26   A    
C27   C28   T    
Cu2   O3    S    
C40   F2    S    
C39   F1    S    
C19   C21   A    
