data_str_m10_o43_o54_f0_idkba.sym.42
_audit_creation_date              2012-12-11T15:49:49-0500
_audit_creation_method            fapswitch 2.2
_symmetry_space_group_name_H-M    P1
_symmetry_Int_Tables_number       1
_space_group_crystal_system       triclinic
_cell_length_a                    8.197369
_cell_length_b                    19.063816
_cell_length_c                    27.056679
_cell_angle_alpha                 95.202922
_cell_angle_beta                  92.465996
_cell_angle_gamma                 85.313103
_cell_volume                      4194.02737429

loop_
_atom_site_label
_atom_site_type_symbol
_atom_type_description
_atom_site_fract_x
_atom_site_fract_y
_atom_site_fract_z
_atom_type_partial_charge
Ba1   Ba    Ba6+2 0.854000 0.466860 0.523710 1.647966
Ba2   Ba    Ba6+2 0.335820 0.533080 0.476290 1.661733
C1    C     C_3   0.622399 0.216409 0.656168 -0.379626
C2    C     C_R   0.976966 0.577594 0.184346 0.590679
C3    C     C_2   0.775749 0.557835 0.272955 -0.077469
C4    C     C_3   0.138433 0.309789 0.660539 0.283516
C5    C     C_3   0.749803 0.576408 0.327789 -0.097762
C6    C     C_1   0.982396 0.490554 0.343818 0.044684
C7    C     C_2   0.021441 0.483737 0.296173 -0.079038
C8    C     C_2   0.912801 0.518498 0.257728 0.222079
C9    C     C_R   0.047693 0.511722 0.105453 -0.079922
C10   C     C_R   0.033540 0.448578 0.127817 -0.033672
C11   C     C_R   0.061948 0.384151 0.099124 -0.062877
C12   C     C_3   0.634268 0.287948 0.636502 0.350735
C13   C     C_R   0.019030 0.576559 0.134130 -0.035320
C14   C     C_2   0.854395 0.530627 0.361086 -0.261091
C15   C     C_2   0.341489 0.480771 0.644322 -0.288920
C16   C     C_3   0.090312 0.294921 0.711963 -0.324786
C17   C     C_R   0.171950 0.442929 0.975811 -0.006882
C18   C     C_R   0.136487 0.572829 0.980814 0.028242
C19   C     C_R   0.174339 0.506998 0.952917 0.046073
C20   C     C_R   0.221217 0.379335 0.947595 -0.133133
C21   C     C_R   0.265813 0.377501 0.898041 0.209947
C22   C     C_R   0.258531 0.440611 0.873799 -0.047140
C23   C     C_3   0.507672 0.642791 0.626405 0.313809
C24   C     C_R   0.214999 0.505377 0.901669 -0.115160
C25   C     C_R   0.213547 0.568882 0.878451 -0.039112
C26   C     C_R   0.250230 0.567216 0.827698 0.598395
C27   C     C_R   0.292291 0.441049 0.822529 0.573941
C28   C     C_3   0.187581 0.317779 0.417938 0.316082
C29   C     C_2   0.461672 0.482533 0.729892 -0.109087
C30   C     C_3   0.496922 0.487356 0.675952 -0.061766
C31   C     C_1   0.206562 0.516555 0.660324 0.023644
C32   C     C_2   0.174493 0.523745 0.709295 0.141825
C33   C     C_2   0.309945 0.502156 0.746655 0.221248
C34   C     C_3   0.481196 0.670570 0.680212 -0.371258
C35   C     C_R   0.123587 0.444311 0.026241 0.028323
C36   C     C_R   0.090604 0.510132 0.054449 0.050908
C37   C     C_R   0.100098 0.574450 0.032229 0.019373
C38   C     C_R   0.105397 0.381932 0.049653 -0.102375
C39   C     C_R   0.033789 0.639402 0.112198 -0.063792
C40   C     C_3   0.193887 0.238179 0.405581 -0.387073
C41   C     C_R   0.135619 0.635114 0.955997 -0.100437
C42   C     C_R   0.173496 0.633056 0.906228 -0.065730
C43   C     C_R   0.073253 0.638515 0.062606 -0.105083
C44   C     C_R   0.396521 0.298276 0.521658 -0.287496
C45   C     C_3   0.982028 0.740887 0.341620 0.310488
C46   C     C_R   0.536298 0.275842 0.495561 0.066052
C47   C     C_R   0.588470 0.203778 0.489836 -0.120458
C48   C     C_R   0.499025 0.153595 0.509922 -0.016508
C49   C     C_R   0.354373 0.177286 0.535048 -0.138608
C50   C     C_R   0.302687 0.249457 0.540070 0.014901
C51   C     C_R   0.540446 0.033235 0.541721 -0.082261
C52   C     C_3   0.018732 0.687055 0.584314 0.328986
C53   C     C_R   0.589606 0.961073 0.535362 -0.090781
C54   C     C_R   0.652266 0.930241 0.490088 0.050558
C55   C     C_R   0.666251 0.973833 0.451524 -0.082897
C56   C     C_3   0.019507 0.763558 0.290962 0.345172
C57   C     C_R   0.617034 0.046179 0.457910 -0.076888
C58   C     C_R   0.552962 0.076765 0.503073 0.065711
C59   C     C_R   0.844437 0.826579 0.458264 -0.119534
C60   C     C_R   0.893136 0.753866 0.455062 -0.014252
C61   C     C_R   0.658482 0.732829 0.501277 0.068561
C62   C     C_R   0.609016 0.804935 0.504844 -0.072819
C63   C     C_R   0.700948 0.852891 0.483310 0.013502
C64   C     C_3   0.015955 0.765650 0.603463 0.473284
C65   C     C_R   0.796449 0.707519 0.475124 -0.260894
C66   C     C_3   0.671828 0.383472 0.376652 0.298139
C67   C     C_3   0.544392 0.721265 0.341298 0.321290
C68   C     C_3   0.675027 0.367133 0.320615 -0.359362
C69   C     C_3   0.909022 0.817453 0.678792 0.266610
C70   C     C_3   0.960733 0.764299 0.716541 -0.322347
C71   C     C_3   0.004511 0.885066 0.575634 -0.217699
C72   C     C_3   0.808718 0.837011 0.258617 0.272361
C73   C     C_3   0.654139 0.837881 0.225449 -0.306250
C74   C     C_3   0.493989 0.293943 0.877434 -0.159745
C75   C     C_3   0.929150 0.533952 0.760637 -0.141791
C76   C     C_3   0.455453 0.794583 0.343189 -0.315810
C77   C     C_R   0.989287 0.451197 0.178220 0.590661
H1    H     H_    0.740357 0.283731 0.611864 0.098234
H2    H     H_    0.604987 0.175853 0.624662 0.073287
H3    H     H_    0.773878 0.325358 0.311013 0.133521
H4    H     H_    0.697556 0.415230 0.302604 0.071730
H5    H     H_    0.555418 0.348801 0.306212 0.131452
H6    H     H_    0.519447 0.301372 0.615123 -0.043542
H7    H     H_    0.516759 0.218615 0.680773 0.124862
H8    H     H_    0.387956 0.628174 0.609628 0.007253
H9    H     H_    0.596255 0.595436 0.625295 0.030865
H10   H     H_    0.400854 0.720485 0.681756 0.121514
H11   H     H_    0.421561 0.631620 0.699888 0.077598
H12   H     H_    0.272941 0.222549 0.373469 0.123959
H13   H     H_    0.600421 0.680648 0.699396 0.116141
H14   H     H_    0.736645 0.201092 0.677447 0.127427
H15   H     H_    0.117430 0.339854 0.739047 0.133017
H16   H     H_    0.920694 0.690931 0.336504 -0.009476
H17   H     H_    0.899766 0.783538 0.360120 -0.090312
H18   H     H_    0.109445 0.723368 0.273177 0.118728
H19   H     H_    0.080773 0.814029 0.295887 -0.057766
H20   H     H_    0.632384 0.716574 0.310879 0.031717
H21   H     H_    0.612481 0.716913 0.377584 -0.037996
H22   H     H_    0.546174 0.835062 0.346670 0.042285
H23   H     H_    0.244499 0.210445 0.437714 0.063498
H24   H     H_    0.377403 0.803567 0.375990 0.155061
H25   H     H_    0.087600 0.364016 0.654147 0.085355
H26   H     H_    0.378978 0.800701 0.308796 0.099900
H27   H     H_    0.134626 0.454236 0.284859 0.108254
H28   H     H_    0.050060 0.334611 0.114852 0.119131
H29   H     H_    0.561203 0.468676 0.755879 0.086266
H30   H     H_    0.232371 0.329349 0.963513 0.065312
H31   H     H_    0.120593 0.329943 0.030503 0.064855
H32   H     H_    0.695411 0.584243 0.246283 0.096807
H33   H     H_    0.014368 0.690184 0.133445 0.123836
H34   H     H_    0.068547 0.221736 0.396215 0.126245
H35   H     H_    0.103182 0.686932 0.973670 0.064219
H36   H     H_    0.273979 0.307036 0.659380 -0.010563
H37   H     H_    0.169916 0.682610 0.889350 0.115989
H38   H     H_    0.084021 0.689527 0.049537 0.065419
H39   H     H_    0.837661 0.540635 0.400734 0.076825
H40   H     H_    0.335268 0.440205 0.613546 0.059840
H41   H     H_    0.500985 0.823501 0.525335 0.057798
H42   H     H_    0.580389 0.929555 0.566308 0.069454
H43   H     H_    0.494446 0.055183 0.577226 0.061233
H44   H     H_    0.697623 0.187061 0.469393 0.081596
H45   H     H_    0.896838 0.674199 0.568886 -0.003138
H46   H     H_    0.712116 0.951717 0.416036 0.055657
H47   H     H_    0.956943 0.288610 0.712138 0.143652
H48   H     H_    0.626154 0.077915 0.427074 0.058172
H49   H     H_    0.921846 0.862452 0.443510 0.054832
H50   H     H_    0.279153 0.139848 0.548972 0.075964
H51   H     H_    0.834961 0.651739 0.473550 0.054033
H52   H     H_    0.355332 0.353822 0.525041 0.069333
H53   H     H_    0.158931 0.245915 0.723233 0.115294
H54   H     H_    0.313053 0.333481 0.426222 0.001168
H55   H     H_    0.111080 0.331813 0.450789 0.064942
H56   H     H_    0.109877 0.674302 0.555319 0.000491
H57   H     H_    0.795376 0.848135 0.691640 0.065509
H58   H     H_    0.002991 0.856287 0.677855 0.003272
H59   H     H_    0.080957 0.736118 0.707431 0.134792
H60   H     H_    0.972182 0.792382 0.754159 0.072182
H61   H     H_    0.867556 0.725354 0.716940 0.126332
H62   H     H_    0.107665 0.794541 0.538734 0.174722
H63   H     H_    0.006068 0.913261 0.541524 0.107088
H64   H     H_    0.111207 0.899376 0.600129 0.081218
H65   H     H_    0.888811 0.902702 0.594496 0.138801
H66   H     H_    0.896426 0.869799 0.242752 0.035620
H67   H     H_    0.132895 0.772497 0.625628 -0.014353
H68   H     H_    0.776551 0.860450 0.296461 0.010221
H69   H     H_    0.565433 0.803868 0.239172 0.118985
H70   H     H_    0.596806 0.892697 0.225380 0.052814
H71   H     H_    0.684804 0.817847 0.186860 0.126683
H72   H     H_    0.253842 0.269948 0.881716 0.180610
H73   H     H_    0.526887 0.243970 0.854427 0.105241
H74   H     H_    0.532136 0.286988 0.916727 0.068811
H75   H     H_    0.561312 0.336398 0.864010 0.132014
H76   H     H_    0.968802 0.598874 0.704366 0.214143
H77   H     H_    0.801138 0.535158 0.745534 0.089391
H78   H     H_    0.793302 0.398743 0.390699 0.003658
H79   H     H_    0.927777 0.566130 0.796882 0.097055
H80   H     H_    0.972517 0.478390 0.766351 0.105194
H81   H     H_    0.578878 0.428082 0.384938 0.083870
N1    N     N_R   0.960287 0.515428 0.205948 -0.427078
N2    N     N_R   0.281975 0.503577 0.799788 -0.426929
N3    N     N_2   0.013611 0.809593 0.562356 -0.451846
N4    N     N_2   0.318993 0.311053 0.873160 -0.380408
N5    N     N_2   0.030886 0.564532 0.727089 -0.397311
O1    O     O_2   0.913240 0.537010 0.617740 -0.458335
O2    O     O_2   0.236094 0.747336 0.460273 -0.492622
O3    O     O_3   0.130120 0.730173 0.368777 -0.589969
O4    O     O_3   0.145240 0.536960 0.557560 -0.481557
O5    O     O_3   0.557280 0.416300 0.475860 -0.490583
O6    O     O_2   0.376710 0.670070 0.522470 -0.474539
O7    O     O_3   0.570435 0.695769 0.601812 -0.609630
O8    O     O_2   0.425019 0.530613 0.322426 -0.484243
O9    O     O_3   0.431877 0.669132 0.331682 -0.546192
O10   O     O_2   0.974835 0.396315 0.197130 -0.597857
O11   O     O_2   0.330008 0.385722 0.797917 -0.586238
O12   O     O_3   0.633617 0.323080 0.398180 -0.635777
O13   O     O_2   0.956306 0.634201 0.209043 -0.574386
O14   O     O_2   0.253009 0.622514 0.808241 -0.592073
O15   O     O_3   0.669960 0.410470 0.588880 -0.482300
O16   O     O_2   0.835115 0.443288 0.671926 -0.493902
O17   O     O_3   0.059600 0.648977 0.625231 -0.670030
O18   O     O_3   0.654937 0.339079 0.676479 -0.598863
O19   O     O_2   0.812980 0.329910 0.477500 -0.458160
O20   O     O_3   0.078660 0.374870 0.564770 -0.491337
O21   O     O_2   0.964751 0.250359 0.533901 -0.483966
O22   O     O_3   0.873098 0.782867 0.631467 -0.614836
O23   O     O_3   0.074716 0.259294 0.625538 -0.603571
O24   O     O_3   0.875870 0.766633 0.260041 -0.625089
O25   O     O_2   0.276450 0.462960 0.382230 -0.459739
O26   O     O_3   0.044470 0.462980 0.442430 -0.496343
O27   O     O_3   0.519740 0.589470 0.411120 -0.455871
O28   O     O_3   0.121534 0.350459 0.376637 -0.630515
O29   O     O_3   0.632420 0.583650 0.524140 -0.475943
O30   O     O_3   0.111040 0.625070 0.435230 -0.454722
P1    P     P_3+3 0.082480 0.557670 0.610090 0.985432
P2    P     P_3+3 0.635220 0.340300 0.462910 0.984862
P3    P     P_3+3 0.105237 0.282790 0.565814 0.936121
P4    P     P_3+3 0.107220 0.442270 0.389900 0.993088
P5    P     P_3+3 0.090588 0.716278 0.429946 0.968914
P6    P     P_3+3 0.664122 0.421652 0.653399 0.960899
P7    P     P_3+3 0.562626 0.672144 0.537795 0.971575
P8    P     P_3+3 0.531316 0.588721 0.346749 0.982208

loop_
_geom_bond_atom_site_label_1
_geom_bond_atom_site_label_2
_ccdc_geom_bond_type
C34   H10   S    
C53   C54   A    
C53   H42   S    
C61   P7    S    
C44   C50   A    
Ba2   O4    S    
C29   H29   S    
C66   O12   S    
C72   H66   S    
C16   H53   S    
C56   H19   S    
C11   H28   S    
C12   O18   S    
C49   H50   S    
C26   N2    Am   
C69   H58   S    
C24   C25   A    
C60   C65   A    
C76   H26   S    
C43   H38   S    
C17   C19   A    
O1    P1    D    
C32   C33   S    
C35   C38   A    
O16   P6    D    
C51   H43   S    
C41   H35   S    
C55   H46   S    
C36   C37   A    
Ba1   O15   S    
C55   C57   A    
C28   O28   S    
C74   H73   S    
C73   H71   S    
C75   N5    S    
C54   C63   S    
O29   P7    S    
C10   C77   A    
C4    O23   S    
C74   H74   S    
C23   H8    S    
C54   C55   A    
Ba1   Ba2   S    
C74   H75   S    
C30   P6    S    
C22   C27   A    
C11   C38   A    
C5    P8    S    
C17   C35   A    
C9    C13   A    
C25   C42   A    
Ba1   O19   S    
C70   H60   S    
C31   P1    S    
C6    C7    D    
C28   H55   S    
C39   H33   S    
C1    H2    S    
O2    P5    D    
C52   O17   S    
C4    H25   S    
O20   P3    S    
C32   N5    S    
C68   H5    S    
C7    C8    S    
H72   N4    S    
Ba2   O6    S    
C37   C43   A    
C34   H13   S    
C70   H59   S    
C57   C58   A    
C6    C14   D    
O12   P2    S    
C64   O22   S    
C1    H7    S    
C67   C76   S    
C56   H18   S    
C15   C31   D    
C77   N1    Am   
C40   H23   S    
C51   C58   A    
O25   P4    D    
C31   C32   D    
O4    P1    S    
C61   C65   A    
C71   H63   S    
C51   C53   A    
C4    C16   S    
O26   P4    S    
C33   N2    S    
C72   C73   S    
C49   C50   A    
O18   P6    S    
C77   O10   D    
C72   H68   S    
C17   C20   A    
Ba2   O26   S    
C13   C39   A    
O15   P6    S    
C21   N4    S    
C45   H17   S    
C69   O22   S    
C69   H57   S    
C3    C5    S    
C18   C37   A    
C2    O13   D    
C38   H31   S    
C3    H32   S    
C7    H27   S    
O28   P4    S    
C23   H9    S    
Ba2   P4    S    
Ba2   O29   S    
C9    C36   A    
C41   C42   A    
C67   H21   S    
C35   C36   A    
H76   N5    S    
C14   H39   S    
C72   O24   S    
C40   H34   S    
C29   C30   S    
O23   P3    S    
C21   C22   A    
C20   H30   S    
Ba1   P1    S    
C56   O24   S    
C48   C49   A    
C1    H14   S    
C18   C19   A    
O7    P7    S    
C68   H4    S    
C1    C12   S    
C75   H80   S    
C52   C64   S    
C67   H20   S    
C23   O7    S    
C66   C68   S    
C46   C47   A    
Ba2   O5    S    
H62   N3    S    
C8    N1    S    
C12   H1    S    
C16   H15   S    
C28   H54   S    
C29   C33   D    
C74   N4    S    
C65   H51   S    
C50   P3    S    
C67   O9    S    
C27   O11   D    
C66   H78   S    
Ba1   O26   S    
C44   H52   S    
C18   C41   A    
O30   P5    S    
C71   H64   S    
C34   H11   S    
C52   H45   S    
C5    C14   S    
O19   P2    D    
O3    P5    S    
C76   H24   S    
C2    N1    Am   
C27   N2    Am   
Ba1   P2    S    
Ba1   O5    S    
Ba2   O25   S    
C12   H6    S    
Ba2   O27   S    
C9    C10   A    
Ba2   O30   S    
Ba1   O20   S    
C73   H69   S    
C75   H79   S    
C62   H41   S    
O21   P3    D    
C46   P2    S    
O8    P8    D    
C48   C58   S    
C62   C63   A    
C2    C13   A    
Ba1   O29   S    
C60   P5    S    
C3    C8    D    
C75   H77   S    
C39   C43   A    
C16   H47   S    
C45   C56   S    
C45   O3    S    
C22   C24   A    
Ba1   O1    S    
C73   H70   S    
C52   H56   S    
C19   C24   A    
Ba1   O4    S    
O9    P8    S    
O27   P8    S    
C64   N3    S    
C59   H49   S    
C59   C60   A    
C68   H3    S    
C26   O14   D    
C4    H36   S    
C64   H67   S    
C15   H40   S    
C23   C34   S    
C61   C62   A    
C44   C46   A    
C59   C63   A    
C70   H61   S    
O17   P1    S    
C10   C11   A    
C42   H37   S    
C47   H44   S    
C71   N3    S    
C47   C48   A    
C25   C26   A    
C15   C30   S    
C45   H16   S    
C20   C21   A    
C28   C40   S    
C6    P4    S    
C69   C70   S    
C66   H81   S    
C57   H48   S    
O5    P2    S    
C40   H12   S    
C76   H22   S    
C71   H65   S    
O6    P7    D    
