data_str_m1_o26_o26_f0_pcu.sym.230
_audit_creation_date              2012-12-10T18:53:59-0500
_audit_creation_method            fapswitch 2.2
_symmetry_space_group_name_H-M    P1
_symmetry_Int_Tables_number       1
_space_group_crystal_system       triclinic
_cell_length_a                    19.406168
_cell_length_b                    19.410644
_cell_length_c                    19.475983
_cell_angle_alpha                 84.733003
_cell_angle_beta                  95.079896
_cell_angle_gamma                 90.582785
_cell_volume                      7276.64901245

loop_
_atom_site_label
_atom_site_type_symbol
_atom_type_description
_atom_site_fract_x
_atom_site_fract_y
_atom_site_fract_z
_atom_type_partial_charge
C1    C     C_R   0.311722 0.491685 0.491988 0.788491
C2    C     C_2   0.496762 0.983517 0.476672 -0.314140
C3    C     C_2   0.515397 0.015511 0.534264 -0.035010
C4    C     C_R   0.687871 0.507227 0.508271 0.778572
C5    C     C_R   0.512428 0.236157 0.515987 0.006312
C6    C     C_R   0.763109 0.507698 0.514082 -0.026715
C7    C     C_R   0.800982 0.445301 0.520530 -0.019387
C8    C     C_R   0.872663 0.448570 0.518011 -0.198611
C9    C     C_R   0.906462 0.512755 0.508821 0.189456
C10   C     C_R   0.868656 0.573988 0.506631 -0.181635
C11   C     C_R   0.797388 0.571505 0.509323 -0.216940
C12   C     C_R   0.497819 0.908204 0.475129 0.191254
C13   C     C_R   0.123254 0.534406 0.453448 -0.163234
C14   C     C_R   0.194908 0.540428 0.456611 -0.212544
C15   C     C_R   0.205796 0.422922 0.511051 -0.198041
C16   C     C_R   0.508335 0.492026 0.688917 0.787418
C17   C     C_R   0.134185 0.416507 0.506677 -0.179038
C18   C     C_R   0.092766 0.472704 0.479531 0.202708
C19   C     C_2   0.981260 0.517841 0.502320 -0.223135
C20   C     C_2   0.017844 0.466683 0.481439 -0.243281
C21   C     C_R   0.236505 0.485142 0.486634 0.005944
C22   C     C_R   0.492344 0.514586 0.235745 0.001756
C23   C     C_R   0.439916 0.874355 0.445921 -0.190455
C24   C     C_R   0.537540 0.473383 0.204861 -0.209481
C25   C     C_R   0.540485 0.480405 0.133766 -0.166042
C26   C     C_R   0.497685 0.528243 0.092149 0.207182
C27   C     C_R   0.453474 0.570526 0.122737 -0.182118
C28   C     C_R   0.491985 0.508165 0.311170 0.785622
C29   C     C_R   0.450419 0.563470 0.194291 -0.199729
C30   C     C_R   0.538318 0.540453 0.871433 -0.161930
C31   C     C_R   0.538777 0.543117 0.799894 -0.213220
C32   C     C_R   0.483993 0.430050 0.801159 -0.199784
C33   C     C_R   0.484373 0.427041 0.872722 -0.183494
C34   C     C_R   0.437975 0.802267 0.450308 -0.206593
C35   C     C_R   0.510187 0.482697 0.907980 0.206499
C36   C     C_2   0.498837 0.534278 0.016719 -0.243064
C37   C     C_2   0.508531 0.478441 0.983156 -0.241239
C38   C     C_R   0.510781 0.488306 0.764297 0.003814
C39   C     C_R   0.508424 0.311719 0.509151 0.786972
C40   C     C_R   0.492443 0.688321 0.491023 0.784651
C41   C     C_R   0.494104 0.763920 0.483927 0.003335
C42   C     C_R   0.553338 0.798312 0.509982 -0.211120
C43   C     C_R   0.555569 0.869998 0.504667 -0.134812
C44   C     C_R   0.767350 0.376486 0.531686 0.133869
C45   C     C_R   0.484827 0.126548 0.577301 -0.174460
C46   C     C_R   0.778499 0.324280 0.488441 -0.141611
C47   C     C_R   0.746564 0.259678 0.498733 -0.141858
C48   C     C_R   0.703627 0.246519 0.552387 -0.102885
C49   C     C_R   0.692418 0.297956 0.595801 -0.137709
C50   C     C_R   0.724327 0.362575 0.585810 -0.138413
C51   C     C_R   0.530057 0.977392 0.603954 0.135677
C52   C     C_R   0.591066 0.991333 0.644792 -0.177391
C53   C     C_R   0.605002 0.956343 0.710493 -0.140600
C54   C     C_R   0.557947 0.907665 0.736146 -0.111021
C55   C     C_R   0.496671 0.894171 0.696300 -0.145155
C56   C     C_R   0.482537 0.198311 0.570777 -0.210302
C57   C     C_R   0.482466 0.929108 0.630624 -0.133863
C58   C     C_R   0.545773 0.201228 0.468458 -0.204480
C59   C     C_R   0.547778 0.129247 0.474857 -0.205012
C60   C     C_R   0.516578 0.091576 0.528906 0.149268
H1    H     H_    0.598046 0.769834 0.534433 0.159587
H2    H     H_    0.901655 0.400770 0.524806 0.127544
H3    H     H_    0.457097 0.224092 0.608573 0.160700
H4    H     H_    0.111074 0.368525 0.526533 0.129514
H5    H     H_    0.571186 0.435950 0.235593 0.164904
H6    H     H_    0.560069 0.588347 0.772424 0.160163
H7    H     H_    0.462812 0.386809 0.774725 0.157765
H8    H     H_    0.511343 0.427315 0.011144 0.150340
H9    H     H_    0.420658 0.608125 0.091178 0.129717
H10   H     H_    0.560467 0.583132 0.898061 0.131442
H11   H     H_    0.415716 0.596398 0.217077 0.161444
H12   H     H_    0.573489 0.102906 0.437634 0.137192
H13   H     H_    0.487951 0.584319 0.988214 0.149982
H14   H     H_    0.576818 0.448804 0.111537 0.132720
H15   H     H_    0.569707 0.229405 0.426173 0.162849
H16   H     H_    0.463329 0.381820 0.900484 0.129284
H17   H     H_    0.395479 0.903611 0.421992 0.134218
H18   H     H_    0.460465 0.098283 0.619276 0.140034
H19   H     H_    0.392190 0.776609 0.429026 0.156119
H20   H     H_    0.478515 0.013969 0.428990 0.157031
H21   H     H_    0.601706 0.895679 0.525138 0.139478
H22   H     H_    0.811331 0.333834 0.446394 0.120479
H23   H     H_    0.217724 0.588607 0.436928 0.155332
H24   H     H_    0.755066 0.219804 0.465057 0.123997
H25   H     H_    0.679068 0.196455 0.560358 0.133779
H26   H     H_    0.659089 0.287706 0.637300 0.120764
H27   H     H_    0.715633 0.401680 0.620328 0.108625
H28   H     H_    0.628025 0.028866 0.625489 0.127579
H29   H     H_    0.652301 0.966976 0.741533 0.128675
H30   H     H_    0.568835 0.880611 0.787009 0.122366
H31   H     H_    0.460047 0.856797 0.716406 0.128671
H32   H     H_    0.434376 0.918717 0.600705 0.135800
H33   H     H_    0.237118 0.379251 0.533408 0.157213
H34   H     H_    0.993973 0.417986 0.469432 0.146531
H35   H     H_    0.894102 0.623875 0.500908 0.128685
H36   H     H_    0.091706 0.577851 0.430957 0.131515
H37   H     H_    0.768607 0.619489 0.504999 0.148356
H38   H     H_    0.007068 0.565819 0.514322 0.149092
O1    O     O_3   0.500000 0.500000 0.500000 -0.480021
O2    O     O_R   0.467830 0.341070 0.546160 -0.655772
O3    O     O_R   0.450560 0.655630 0.450550 -0.647616
O4    O     O_R   0.545840 0.347670 0.467560 -0.635555
O5    O     O_R   0.535760 0.655640 0.535740 -0.647679
O6    O     O_R   0.545870 0.536170 0.656040 -0.645539
O7    O     O_R   0.450550 0.545430 0.340370 -0.648244
O8    O     O_R   0.347960 0.451240 0.536460 -0.646241
O9    O     O_R   0.655630 0.467150 0.467130 -0.627526
O10   O     O_R   0.340780 0.536140 0.450970 -0.646095
O11   O     O_R   0.655640 0.545460 0.545430 -0.648478
O12   O     O_R   0.467850 0.451260 0.656340 -0.649406
O13   O     O_R   0.535740 0.467130 0.347260 -0.648772
Zn1   Zn    Zn3+2 0.558310 0.558310 0.558290 0.961214
Zn2   Zn    Zn3+2 0.446830 0.436990 0.558720 0.959880
Zn3   Zn    Zn3+2 0.558290 0.446420 0.446420 0.974135
Zn4   Zn    Zn3+2 0.436570 0.558290 0.436570 0.962983

loop_
_geom_bond_atom_site_label_1
_geom_bond_atom_site_label_2
_ccdc_geom_bond_type
C31   H6    S    
C4    O11   A    
C45   C60   A    
C1    C21   S    
C57   H32   S    
C27   C29   A    
C41   C42   A    
C54   C55   A    
C5    C56   A    
C19   C20   D    
C2    C12   S    
O1    Zn3   S    
C16   O12   A    
C7    C8    A    
C53   C54   A    
C12   C23   A    
C26   C27   A    
C5    C58   A    
C14   C21   A    
C36   C37   D    
C22   C29   A    
C54   H30   S    
C12   C43   A    
C17   H4    S    
O1    Zn4   S    
C30   C31   A    
C37   H8    S    
C25   H14   S    
C55   H31   S    
C40   O3    A    
C46   H22   S    
C9    C19   S    
C50   H27   S    
C45   C56   A    
C8    C9    A    
C45   H18   S    
C51   C57   A    
C32   C38   A    
C9    C10   A    
C27   H9    S    
C1    O8    A    
C3    C60   S    
C59   C60   A    
C22   C28   S    
C13   C14   A    
C34   C41   A    
C14   H23   S    
C30   H10   S    
C19   H38   S    
C44   C46   A    
C58   H15   S    
C28   O13   A    
C4    O9    A    
C13   H36   S    
C51   C52   A    
C52   H28   S    
C24   C25   A    
C4    C6    S    
C10   C11   A    
O11   Zn1   S    
C6    C11   A    
O6    Zn1   S    
C3    C51   S    
O8    Zn2   S    
C58   C59   A    
C7    C44   S    
O5    Zn1   S    
O9    Zn3   S    
O1    Zn2   S    
O4    Zn3   S    
C34   H19   S    
C33   H16   S    
C47   C48   A    
O12   Zn2   S    
C28   O7    A    
C23   C34   A    
C17   C18   A    
C56   H3    S    
C47   H24   S    
C23   H17   S    
C42   H1    S    
C24   H5    S    
C32   H7    S    
C13   C18   A    
C26   C36   S    
C48   C49   A    
C16   O6    A    
C55   C57   A    
C53   H29   S    
C43   H21   S    
C22   C24   A    
C42   C43   A    
C52   C53   A    
O10   Zn4   S    
C39   O4    A    
C44   C50   A    
C15   C17   A    
C20   H34   S    
C46   C47   A    
C40   C41   S    
C35   C37   S    
C49   H26   S    
O7    Zn4   S    
O2    Zn2   S    
C15   H33   S    
C6    C7    A    
C30   C35   A    
C59   H12   S    
C31   C38   A    
C11   H37   S    
C32   C33   A    
C5    C39   S    
C2    C3    D    
C25   C26   A    
C40   O5    A    
C39   O2    A    
C10   H35   S    
O3    Zn4   S    
O1    Zn1   S    
C33   C35   A    
O13   Zn3   S    
C18   C20   S    
C2    H20   S    
C36   H13   S    
C1    O10   A    
C15   C21   A    
C49   C50   A    
C8    H2    S    
C48   H25   S    
C16   C38   S    
C29   H11   S    
