data_str_m2_o22_o27_f0_pcu.sym.103
_audit_creation_date              2012-12-10T18:13:09-0500
_audit_creation_method            fapswitch 2.2
_symmetry_space_group_name_H-M    P1
_symmetry_Int_Tables_number       1
_space_group_crystal_system       triclinic
_cell_length_a                    10.896972
_cell_length_b                    9.586235
_cell_length_c                    19.347079
_cell_angle_alpha                 89.536276
_cell_angle_beta                  89.86453
_cell_angle_gamma                 91.277689
_cell_volume                      2020.43873852

loop_
_atom_site_label
_atom_site_type_symbol
_atom_type_description
_atom_site_fract_x
_atom_site_fract_y
_atom_site_fract_z
_atom_type_partial_charge
C1    C     C_R   0.259940 0.498557 0.498507 0.808064
C2    C     C_R   0.495599 0.505531 0.067930 0.461292
C3    C     C_R   0.567892 0.600782 0.815079 -0.159235
C4    C     C_R   0.413180 0.414882 0.816029 -0.159259
C5    C     C_R   0.570557 0.597674 0.743098 -0.128514
C6    C     C_R   0.414110 0.414163 0.743972 -0.213525
C7    C     C_R   0.495580 0.502175 0.707356 -0.010874
C8    C     C_R   0.490624 0.507757 0.852093 0.062651
C9    C     C_3   0.071134 0.638689 0.524326 0.253965
C10   C     C_3   0.067006 0.381177 0.550214 0.264083
C11   C     C_3   0.930404 0.635257 0.528105 0.372643
C12   C     C_3   0.923576 0.376459 0.548778 0.416846
C13   C     C_3   0.067948 0.466595 0.424633 -0.418541
C14   C     C_3   0.121420 0.495478 0.497843 -0.146923
C15   C     C_3   0.877058 0.496223 0.500913 -0.119249
C16   C     C_R   0.499588 0.500724 0.367286 0.804511
C17   C     C_3   0.925466 0.469855 0.426486 -0.635175
C18   C     C_3   0.624395 0.088530 0.516234 0.404125
C19   C     C_3   0.608359 0.927912 0.538427 0.401613
C20   C     C_3   0.403341 0.078858 0.548857 0.280514
C21   C     C_3   0.390101 0.911667 0.539984 0.289912
C22   C     C_3   0.468317 0.081599 0.432248 -0.312498
C23   C     C_3   0.490016 0.918042 0.430789 -0.339041
C24   C     C_R   0.739386 0.500031 0.500436 0.882744
C25   C     C_R   0.498532 0.500004 0.631939 0.819019
C26   C     C_R   0.466059 0.624938 0.252840 0.449523
C27   C     C_R   0.531137 0.382815 0.252307 0.434064
C28   C     C_R   0.472011 0.625918 0.180213 -0.252990
C29   C     C_R   0.524441 0.383141 0.180140 -0.244664
C30   C     C_R   0.497271 0.504763 0.143838 -0.086420
C31   C     C_R   0.498946 0.502932 0.290083 -0.245470
C32   C     C_R   0.491237 0.507345 0.927966 0.403027
Cu1   Cu    Cu3+1 0.499860 0.642410 0.500030 1.020098
Cu2   Cu    Cu3+1 0.499860 0.357590 0.500030 1.005125
H1    H     H_    0.892160 0.551643 0.390541 0.183696
H2    H     H_    0.887582 0.368739 0.407361 0.209494
H3    H     H_    0.664512 0.148905 0.559123 0.094389
H4    H     H_    0.582384 0.926655 0.593259 0.069780
H5    H     H_    0.371875 0.103331 0.417790 0.112658
H6    H     H_    0.411880 0.867221 0.403639 0.212268
H7    H     H_    0.522846 0.130524 0.390246 0.296724
H8    H     H_    0.573503 0.895342 0.400298 0.224348
H9    H     H_    0.315951 0.113601 0.527844 0.162462
H10   H     H_    0.308509 0.890700 0.507132 0.142932
H11   H     H_    0.454364 0.721137 0.151884 0.173419
H12   H     H_    0.545454 0.288736 0.152475 0.180120
H13   H     H_    0.627987 0.673826 0.841782 0.153120
H14   H     H_    0.350537 0.344703 0.843500 0.156072
H15   H     H_    0.632138 0.668552 0.715315 0.152761
H16   H     H_    0.349815 0.346880 0.716744 0.179778
H17   H     H_    0.102423 0.644077 0.578784 0.128996
H18   H     H_    0.091644 0.419807 0.602576 0.142094
H19   H     H_    0.893775 0.723323 0.497854 0.154548
H20   H     H_    0.886718 0.275284 0.530359 0.129031
H21   H     H_    0.104064 0.539614 0.385040 0.177766
H22   H     H_    0.099362 0.367308 0.403358 0.180567
N1    N     N_R   0.465402 0.387860 0.032727 -0.234115
N2    N     N_R   0.523425 0.624149 0.031908 -0.234279
N3    N     N_R   0.462756 0.388904 0.963984 -0.236907
N4    N     N_R   0.521958 0.624842 0.963163 -0.238549
N5    N     N_3   0.500250 0.143650 0.501520 -0.237696
N6    N     N_3   0.500250 0.856350 0.501520 -0.208455
O1    O     O_R   0.317570 0.620260 0.500040 -0.539811
O2    O     O_R   0.317570 0.379740 0.500040 -0.554026
O3    O     O_R   0.499870 0.620300 0.400170 -0.562014
O4    O     O_R   0.499870 0.379700 0.400170 -0.551440
O5    O     O_R   0.682190 0.620260 0.500020 -0.525502
O6    O     O_R   0.682190 0.379740 0.500020 -0.564404
O7    O     O_R   0.499890 0.620220 0.599880 -0.523282
O8    O     O_R   0.499890 0.379780 0.599880 -0.539827
O9    O     O_3   0.435968 0.745331 0.287703 -0.568450
C33   C     C_3   0.317964 0.788831 0.267844 -0.350652
H23   H     H_    0.248855 0.701512 0.270543 0.145223
H24   H     H_    0.319338 0.837409 0.215580 0.179256
H25   H     H_    0.288012 0.870853 0.303803 0.166920
O10   O     O_3   0.565885 0.262084 0.285352 -0.575321
C34   C     C_3   0.695068 0.256898 0.284246 -0.291084
H26   H     H_    0.736887 0.345493 0.313364 0.151849
H27   H     H_    0.731642 0.255472 0.230497 0.151023
H28   H     H_    0.722828 0.158697 0.309728 0.201506
O11   O     O_3   0.700074 0.120886 0.456839 -0.567183
C35   C     C_3   0.803961 0.040001 0.445866 -0.339579
H29   H     H_    0.778543 0.934188 0.427317 0.202650
H30   H     H_    0.863550 0.038777 0.491720 0.184179
H31   H     H_    0.857905 0.088797 0.403160 0.141238
O12   O     O_3   0.719972 0.856714 0.539288 -0.566242
C36   C     C_3   0.791653 0.897425 0.598180 -0.265104
H32   H     H_    0.768355 0.828325 0.642838 0.225514
H33   H     H_    0.779729 0.006649 0.614986 0.090143
H34   H     H_    0.890793 0.891517 0.586113 0.215965
O13   O     O_3   0.395410 0.137854 0.616520 -0.535003
C37   C     C_3   0.482200 0.097719 0.666809 -0.282813
H35   H     H_    0.479843 0.985471 0.679591 0.179074
H36   H     H_    0.456592 0.145363 0.716402 0.179048
H37   H     H_    0.575402 0.138610 0.655598 0.148141
O14   O     O_3   0.372105 0.839815 0.603686 -0.553788
C38   C     C_3   0.256211 0.865740 0.633909 -0.206050
H38   H     H_    0.218895 0.766579 0.655989 0.164984
H39   H     H_    0.187136 0.909475 0.598081 0.176673
H40   H     H_    0.267197 0.938365 0.677808 0.184816
O15   O     O_3   0.119757 0.766048 0.495899 -0.601522
C39   C     C_3   0.100828 0.788517 0.424707 -0.401299
H41   H     H_    0.011604 0.748279 0.405390 0.158180
H42   H     H_    0.179312 0.747652 0.395334 0.193677
H43   H     H_    0.101989 0.902329 0.414549 0.155831
O16   O     O_3   0.121003 0.247282 0.549272 -0.546313
C40   C     C_3   0.096207 0.166833 0.489855 -0.374682
H44   H     H_    0.014371 0.195631 0.460680 0.136298
H45   H     H_    0.084206 0.056615 0.506459 0.195309
H46   H     H_    0.174670 0.173570 0.453522 0.164551
F1    F     F_    0.895573 0.647220 0.596677 -0.660781
F2    F     F_    0.877522 0.388176 0.615380 -0.634338

loop_
_geom_bond_atom_site_label_1
_geom_bond_atom_site_label_2
_ccdc_geom_bond_type
C36   H32   S    
O15   C39   S    
C27   C29   A    
C9    H17   S    
C4    C8    A    
C19   O12   S    
C10   H18   S    
Cu2   O4    S    
C38   H38   S    
C2    N1    A    
Cu1   O3    S    
C34   H26   S    
C16   C31   S    
C23   H8    S    
C18   H3    S    
N1    N3    A    
C22   H7    S    
O16   C40   S    
C19   N6    S    
N2    N4    A    
C23   H6    S    
C18   O11   S    
C39   H43   S    
C18   C19   S    
C20   N5    S    
C24   O5    A    
C11   C15   S    
C23   N6    S    
Cu1   N6    S    
C40   H44   S    
C17   H2    S    
Cu2   O8    S    
C11   H19   S    
Cu1   O7    S    
C13   H22   S    
C26   C31   A    
C13   C14   S    
C26   O9    S    
C40   H45   S    
C5    H15   S    
C33   H25   S    
C1    O1    A    
C37   H36   S    
C38   H39   S    
O11   C35   S    
C34   H27   S    
C20   O13   S    
C28   H11   S    
C27   C31   A    
C8    C32   S    
O10   C34   S    
C33   H24   S    
C3    C8    A    
C10   C14   S    
Cu2   O6    S    
O13   C37   S    
C5    C7    A    
O12   C36   S    
C11   F1    S    
C37   H37   S    
C9    C14   S    
C29   C30   A    
C19   H4    S    
C21   H10   S    
C12   C15   S    
Cu1   O1    S    
O14   C38   S    
Cu2   O2    S    
Cu1   Cu2   S    
C6    H16   S    
C39   H42   S    
C9    C11   S    
C21   N6    S    
C10   C12   S    
C4    C6    A    
C15   C24   S    
C35   H30   S    
C36   H33   S    
C40   H46   S    
C10   O16   S    
C16   O4    A    
C32   N4    A    
C27   O10   S    
C1    O2    A    
C12   F2    S    
C38   H40   S    
Cu1   O5    S    
C4    H14   S    
C34   H28   S    
C15   C17   S    
C33   H23   S    
C3    C5    A    
C2    N2    A    
C18   N5    S    
C6    C7    A    
C16   O3    A    
C21   O14   S    
C1    C14   S    
C35   H31   S    
C26   C28   A    
C7    C25   S    
C13   C17   S    
C29   H12   S    
C2    C30   S    
C28   C30   A    
O9    C33   S    
C22   N5    S    
C22   H5    S    
C3    H13   S    
C37   H35   S    
Cu2   N5    S    
C39   H41   S    
C20   H9    S    
C24   O6    A    
C25   O7    A    
C20   C21   S    
C9    O15   S    
C35   H29   S    
C36   H34   S    
C22   C23   S    
C25   O8    A    
C17   H1    S    
C32   N3    A    
C12   H20   S    
C13   H21   S    
