data_str_m3_o26_o28_f0_pcu.sym.158
_audit_creation_date              2012-12-10T19:36:07-0500
_audit_creation_method            fapswitch 2.2
_symmetry_space_group_name_H-M    P1
_symmetry_Int_Tables_number       1
_space_group_crystal_system       triclinic
_cell_length_a                    16.31457
_cell_length_b                    16.839773
_cell_length_c                    23.140506
_cell_angle_alpha                 88.552371
_cell_angle_beta                  93.758522
_cell_angle_gamma                 86.779026
_cell_volume                      6331.10653862

loop_
_atom_site_label
_atom_site_type_symbol
_atom_type_description
_atom_site_fract_x
_atom_site_fract_y
_atom_site_fract_z
_atom_type_partial_charge
C1    C     C_R   0.487575 0.652346 0.499693 0.852031
C2    C     C_R   0.512379 0.347465 0.498047 0.842839
C3    C     C_R   0.516088 0.398928 0.758052 -0.127239
C4    C     C_R   0.550842 0.486561 0.231698 -0.142388
C5    C     C_R   0.520387 0.409116 0.698332 0.068787
C6    C     C_R   0.555383 0.510375 0.289236 0.068120
C7    C     C_R   0.502874 0.485984 0.672888 -0.025879
C8    C     C_R   0.498928 0.480405 0.327283 -0.061268
C9    C     C_R   0.482252 0.550489 0.707102 -0.264813
C10   C     C_R   0.442118 0.425890 0.306989 -0.234319
C11   C     C_R   0.479615 0.539447 0.766695 -0.082689
C12   C     C_R   0.439736 0.402010 0.250028 -0.094954
C13   C     C_R   0.496035 0.463456 0.792215 0.272986
C14   C     C_R   0.493309 0.433127 0.212022 0.276052
C15   C     C_R   0.476718 0.737336 0.488022 -0.044756
C16   C     C_R   0.519760 0.261817 0.488522 -0.064530
C17   C     C_R   0.525609 0.769274 0.446875 -0.240651
C18   C     C_R   0.451048 0.218974 0.499998 -0.240975
C19   C     C_R   0.510163 0.846674 0.426375 -0.149241
C20   C     C_R   0.447942 0.140115 0.486019 -0.156666
C21   C     C_R   0.447153 0.894158 0.448355 0.173777
C22   C     C_R   0.513105 0.102289 0.459123 0.177123
C23   C     C_R   0.500678 0.498694 0.610670 0.849492
C24   C     C_R   0.499580 0.498707 0.388921 0.863536
C25   C     C_R   0.397311 0.862839 0.489202 -0.182513
C26   C     C_R   0.583483 0.142772 0.449565 -0.200367
C27   C     C_R   0.412089 0.784427 0.510210 0.103946
C28   C     C_R   0.588323 0.222719 0.463701 0.093616
C29   C     C_2   0.443302 0.979918 0.438385 -0.229429
C30   C     C_2   0.512847 0.018046 0.446013 -0.219164
C31   C     C_R   0.748148 0.563123 0.470794 -0.074766
C32   C     C_R   0.250851 0.440653 0.531418 -0.054534
C33   C     C_R   0.833110 0.569893 0.471216 -0.306675
C34   C     C_R   0.165738 0.434114 0.530416 -0.302609
C35   C     C_R   0.885151 0.522370 0.510134 0.106339
C36   C     C_R   0.114545 0.478452 0.489056 0.106615
C37   C     C_R   0.851203 0.468774 0.547599 -0.330727
C38   C     C_R   0.149454 0.528553 0.449629 -0.334417
C39   C     C_R   0.766070 0.463110 0.545417 0.519478
C40   C     C_R   0.234724 0.533616 0.452040 0.510790
C41   C     C_2   0.975672 0.528728 0.512080 0.056053
C42   C     C_2   0.023907 0.472469 0.486724 0.049456
C43   C     C_R   0.553752 0.386343 0.125975 0.500419
C44   C     C_R   0.420062 0.468021 0.878380 0.502322
C45   C     C_R   0.414957 0.441233 0.119742 0.510214
C46   C     C_R   0.561513 0.420794 0.885287 0.504377
C47   C     C_R   0.412432 0.441729 0.059211 -0.018981
C48   C     C_R   0.559273 0.406482 0.944905 -0.016942
C49   C     C_R   0.484188 0.417770 0.032135 -0.021628
C50   C     C_R   0.486117 0.426366 0.971622 -0.021402
C51   C     C_R   0.554967 0.387977 0.065611 -0.015823
C52   C     C_R   0.415656 0.457072 0.938197 -0.015001
C53   C     C_R   0.341655 0.469860 0.025367 -0.157534
C54   C     C_R   0.628704 0.374372 0.978434 -0.159042
C55   C     C_R   0.343129 0.477067 0.965344 -0.159989
C56   C     C_R   0.626375 0.364654 0.038240 -0.162097
H1    H     H_    0.285522 0.487999 0.045193 0.193420
H2    H     H_    0.685360 0.357762 0.958729 0.193104
H3    H     H_    0.350430 0.900987 0.507427 0.124224
H4    H     H_    0.634318 0.111969 0.429922 0.127973
H5    H     H_    0.394863 0.108970 0.497475 0.130639
H6    H     H_    0.549227 0.870518 0.394887 0.136102
H7    H     H_    0.707389 0.600097 0.441314 0.147146
H8    H     H_    0.290888 0.406426 0.563112 0.145213
H9    H     H_    0.890638 0.431692 0.578060 0.177314
H10   H     H_    0.110681 0.563214 0.417335 0.176932
H11   H     H_    0.139987 0.394916 0.561390 0.158602
H12   H     H_    0.858065 0.611887 0.441823 0.157784
H13   H     H_    0.287972 0.500184 0.940506 0.192503
H14   H     H_    0.681427 0.341242 0.063064 0.191660
H15   H     H_    0.528582 0.340397 0.778355 0.152331
H16   H     H_    0.590717 0.511350 0.201099 0.143295
H17   H     H_    0.468098 0.609251 0.687574 0.136778
H18   H     H_    0.399895 0.400526 0.335617 0.174548
H19   H     H_    0.464445 0.589745 0.793035 0.153772
H20   H     H_    0.395307 0.360352 0.235146 0.159665
H21   H     H_    0.575256 0.733664 0.429922 0.164526
H22   H     H_    0.398880 0.246578 0.520078 0.165960
H23   H     H_    0.572236 0.984962 0.448886 0.152560
H24   H     H_    0.383409 0.011728 0.436133 0.150809
N1    N     N_R   0.485826 0.416235 0.151685 -0.349473
N2    N     N_R   0.492581 0.451123 0.853382 -0.351840
N3    N     N_R   0.716290 0.510230 0.507380 -0.118472
N4    N     N_R   0.283710 0.489770 0.492620 -0.118686
O1    O     O_R   0.422340 0.612130 0.497340 -0.572008
O2    O     O_R   0.577660 0.387870 0.502660 -0.585495
O3    O     O_R   0.561240 0.618700 0.502080 -0.623931
O4    O     O_R   0.438760 0.381300 0.497920 -0.630830
O5    O     O_R   0.430530 0.496740 0.581480 -0.628814
O6    O     O_R   0.569470 0.503260 0.418520 -0.638393
O7    O     O_R   0.569440 0.503310 0.586210 -0.558974
O8    O     O_R   0.430560 0.496690 0.413790 -0.555018
O9    O     O_2   0.620699 0.357544 0.158926 -0.568112
O10   O     O_2   0.352475 0.495065 0.845384 -0.565486
O11   O     O_2   0.348401 0.468860 0.146403 -0.553565
O12   O     O_2   0.632328 0.405648 0.859447 -0.555208
Zn1   Zn    Zn3+2 0.407250 0.495610 0.496840 0.982344
Zn2   Zn    Zn3+2 0.592750 0.504390 0.503160 0.975400
Cl1   Cl    Cl    0.277004 0.596843 0.402009 -0.620955
Cl2   Cl    Cl    0.724949 0.394833 0.592244 -0.655376
C57   C     C_3   0.985228 0.403939 0.454989 -0.413737
C58   C     C_3   0.045983 0.350071 0.423540 -0.330683
C59   C     C_3   0.001570 0.285355 0.391253 -0.877324
H25   H     H_    0.970243 0.247599 0.422034 0.260875
H26   H     H_    0.955286 0.312444 0.358106 0.265034
H27   H     H_    0.046814 0.247137 0.369169 0.256496
H28   H     H_    0.077518 0.386158 0.391788 0.238492
H29   H     H_    0.092965 0.321064 0.455388 0.229232
H30   H     H_    0.955027 0.366720 0.486758 0.207956
H31   H     H_    0.937139 0.429278 0.422311 0.213164
C60   C     C_3   0.014053 0.597965 0.543050 -0.422046
C61   C     C_3   0.953363 0.651323 0.575032 -0.325526
C62   C     C_3   0.997331 0.716589 0.606973 -0.883625
H32   H     H_    0.044994 0.690081 0.639385 0.269725
H33   H     H_    0.026758 0.755381 0.575814 0.262112
H34   H     H_    0.952114 0.753701 0.629912 0.258769
H35   H     H_    0.905656 0.680018 0.543602 0.231221
H36   H     H_    0.922741 0.614841 0.607053 0.240560
H37   H     H_    0.062979 0.573375 0.575375 0.216130
H38   H     H_    0.042963 0.635190 0.510599 0.203858
C63   C     C_3   0.544883 0.336909 0.664304 -0.373568
C64   C     C_3   0.475751 0.278769 0.659251 -0.402282
C65   C     C_3   0.508957 0.196163 0.643352 -0.840893
H39   H     H_    0.546353 0.199856 0.605127 0.277403
H40   H     H_    0.548179 0.168310 0.680272 0.263537
H41   H     H_    0.456970 0.157875 0.633236 0.249356
H42   H     H_    0.445793 0.272991 0.700811 0.233630
H43   H     H_    0.428188 0.301821 0.625440 0.221684
H44   H     H_    0.561288 0.353469 0.620122 0.234237
H45   H     H_    0.601249 0.307061 0.686642 0.241933
C66   C     C_3   0.617832 0.570224 0.306382 -0.439267
C67   C     C_3   0.576076 0.653222 0.311709 -0.309171
C68   C     C_3   0.639681 0.715863 0.319572 -0.901989
H46   H     H_    0.680555 0.702091 0.359242 0.250177
H47   H     H_    0.677643 0.718047 0.281493 0.269671
H48   H     H_    0.607857 0.775263 0.323547 0.252434
H49   H     H_    0.536180 0.669049 0.271799 0.238573
H50   H     H_    0.536748 0.653635 0.349083 0.222926
H51   H     H_    0.654250 0.550950 0.346843 0.220633
H52   H     H_    0.663632 0.573606 0.272949 0.204855
C69   C     C_3   0.665417 0.263034 0.448816 -0.407963
C70   C     C_3   0.650965 0.311697 0.391779 -0.306138
C71   C     C_3   0.724537 0.360481 0.380246 -0.834633
H53   H     H_    0.735051 0.403209 0.415332 0.265661
H54   H     H_    0.780814 0.320783 0.377614 0.253138
H55   H     H_    0.712340 0.394474 0.338535 0.253958
H56   H     H_    0.640435 0.270760 0.355425 0.222478
H57   H     H_    0.595371 0.352321 0.392825 0.226301
H58   H     H_    0.688387 0.299305 0.485032 0.257269
H59   H     H_    0.716459 0.217673 0.443565 0.185857
C72   C     C_3   0.362596 0.755204 0.558808 -0.436296
C73   C     C_3   0.275477 0.737049 0.536159 -0.286938
C74   C     C_3   0.230403 0.694651 0.582518 -0.882394
H60   H     H_    0.263564 0.636990 0.595869 0.274243
H61   H     H_    0.225081 0.732393 0.620920 0.264373
H62   H     H_    0.167810 0.682533 0.564689 0.251250
H63   H     H_    0.240038 0.793354 0.522233 0.210006
H64   H     H_    0.278358 0.698475 0.498154 0.275097
H65   H     H_    0.393814 0.701600 0.581254 0.199641
H66   H     H_    0.358980 0.801455 0.592161 0.192200

loop_
_geom_bond_atom_site_label_1
_geom_bond_atom_site_label_2
_ccdc_geom_bond_type
C16   C28   A    
C71   H55   S    
C38   C40   A    
C1    O3    A    
C57   C58   S    
C8    C24   S    
C11   C13   A    
C41   C42   D    
C40   N4    A    
C36   C42   S    
C60   C61   S    
C63   H45   S    
C40   Cl1   S    
C69   H58   S    
C65   H39   S    
C47   C49   A    
C48   C54   A    
N4    Zn1   S    
C35   C37   A    
C44   N2    A    
C61   H35   S    
C65   H40   S    
C19   H6    S    
C57   H30   S    
C71   H53   S    
C5    C63   S    
C64   H42   S    
C31   N3    A    
C60   H37   S    
C51   C56   A    
C45   C47   A    
C20   H5    S    
C66   H52   S    
C17   C19   A    
C46   N2    A    
C38   H10   S    
C67   C68   S    
C49   C51   A    
N3    Zn2   S    
C37   H9    S    
O8    Zn1   S    
C68   H48   S    
C50   C52   A    
C72   C73   S    
C23   O5    A    
C58   H29   S    
C1    C15   S    
C74   H61   S    
C2    C16   S    
C18   C20   A    
O4    Zn1   S    
C3    C13   A    
C52   C55   A    
C47   C53   A    
O3    Zn2   S    
C44   C52   A    
C48   C50   A    
C74   H60   S    
C4    C14   A    
C9    H17   S    
O2    Zn2   S    
C24   O8    A    
C17   H21   S    
C61   C62   S    
C69   H59   S    
C46   C48   A    
C53   C55   A    
C1    O1    A    
C32   N4    A    
C54   C56   A    
C70   H57   S    
C66   H51   S    
C32   H8    S    
C4    C6    A    
C5    C7    A    
C53   H1    S    
C65   H41   S    
C6    C8    A    
C67   H49   S    
C21   C29   S    
C13   N2    S    
O5    Zn1   S    
C60   H38   S    
C32   C34   A    
C3    H15   S    
C29   C30   D    
C31   H7    S    
C15   C27   A    
C18   H22   S    
C31   C33   A    
C58   H28   S    
C59   H26   S    
C74   H62   S    
C2    O4    A    
C9    C11   A    
C63   C64   S    
C55   H13   S    
C10   C12   A    
C73   H64   S    
C30   H23   S    
C16   C18   A    
C12   C14   A    
C56   H14   S    
C12   H20   S    
C22   C26   A    
C68   H46   S    
C43   N1    A    
C23   O7    A    
C20   C22   A    
C66   C67   S    
C45   O11   S    
C42   C57   S    
C4    H16   S    
C62   H32   S    
C54   H2    S    
C67   H50   S    
C71   H54   S    
C21   C25   A    
C73   H63   S    
C27   C72   S    
C22   C30   S    
C19   C21   A    
C70   H56   S    
C45   N1    A    
C63   H44   S    
C6    C66   S    
C3    C5    A    
C24   O6    A    
C34   H11   S    
C15   C17   A    
C25   C27   A    
C26   C28   A    
C43   O9    S    
C72   H66   S    
C62   H34   S    
C36   C38   A    
C57   H31   S    
C39   N3    A    
C37   C39   A    
C11   H19   S    
C69   C70   S    
C61   H36   S    
C10   H18   S    
C43   C51   A    
C39   Cl2   S    
C29   H24   S    
C7    C23   S    
C33   C35   A    
C2    O2    A    
C59   H27   S    
C34   C36   A    
O7    Zn2   S    
C64   H43   S    
C58   C59   S    
C35   C41   S    
C44   O10   S    
C7    C9    A    
C46   O12   S    
C73   C74   S    
C8    C10   A    
C49   C50   A    
C41   C60   S    
C59   H25   S    
C68   H47   S    
C70   C71   S    
C28   C69   S    
C25   H3    S    
C14   N1    S    
C64   C65   S    
C26   H4    S    
O6    Zn2   S    
O1    Zn1   S    
C33   H12   S    
C72   H65   S    
C62   H33   S    
