data_str_m1_o4_o15_f0_pcu.sym.291
_audit_creation_date              2012-12-10T19:43:13-0500
_audit_creation_method            fapswitch 2.2
_symmetry_space_group_name_H-M    P1
_symmetry_Int_Tables_number       1
_space_group_crystal_system       triclinic
_cell_length_a                    18.348262
_cell_length_b                    18.411127
_cell_length_c                    18.445289
_cell_angle_alpha                 120.077808
_cell_angle_beta                  89.724921
_cell_angle_gamma                 59.952649
_cell_volume                      4386.9125642

loop_
_atom_site_label
_atom_site_type_symbol
_atom_type_description
_atom_site_fract_x
_atom_site_fract_y
_atom_site_fract_z
_atom_type_partial_charge
C1    C     C_R   0.859401 0.780196 0.643217 0.856390
C2    C     C_R   0.257383 0.673025 0.839166 0.017178
C3    C     C_R   0.261164 0.581318 0.791574 0.069371
C4    C     C_R   0.228500 0.563116 0.720815 -0.024907
C5    C     C_R   0.301490 0.502265 0.805686 -0.070635
C6    C     C_R   0.282466 0.427260 0.767156 -0.150071
C7    C     C_R   0.206244 0.453716 0.741931 0.012892
C8    C     C_R   0.190444 0.507177 0.702220 -0.057614
C9    C     C_R   0.331995 0.329998 0.754226 -0.234674
C10   C     C_R   0.287578 0.284603 0.750011 0.651343
C11   C     C_R   0.197970 0.333192 0.755609 0.457290
C12   C     C_R   0.142280 0.219915 0.359506 0.854857
C13   C     C_R   0.155508 0.419123 0.752500 -0.203726
C14   C     C_R   0.215878 0.053237 0.337074 -0.151136
C15   C     C_R   0.208074 0.107933 0.302795 -0.045186
C16   C     C_R   0.271900 0.052913 0.218327 -0.096947
C17   C     C_R   0.328975 0.943095 0.164828 -0.070645
C18   C     C_R   0.320091 0.890589 0.196389 -0.092129
C19   C     C_R   0.271114 0.947687 0.285844 -0.061549
C20   C     C_3   0.209707 0.942431 0.333118 1.025914
C21   C     C_3   0.147591 0.059654 0.389020 0.396684
C22   C     C_R   0.198371 0.581139 0.333508 0.069295
C23   C     C_R   0.859951 0.500021 0.639694 0.900827
C24   C     C_R   0.204030 0.491940 0.304099 -0.304264
C25   C     C_R   0.271909 0.398580 0.222285 -0.202949
C26   C     C_R   0.323641 0.401605 0.168290 0.665399
C27   C     C_R   0.309548 0.495485 0.196202 -0.255106
C28   C     C_R   0.250650 0.582909 0.281658 -0.038074
C29   C     C_3   0.179169 0.693531 0.317272 -0.373538
C30   C     C_3   0.119914 0.689695 0.373196 0.474348
C31   C     C_R   0.840530 0.946362 0.735872 -0.091697
C32   C     C_R   0.802354 0.891822 0.710910 -0.117309
C33   C     C_R   0.708559 0.948893 0.754265 -0.122019
C34   C     C_R   0.141690 0.498119 0.359874 0.821677
C35   C     C_R   0.656063 0.057117 0.803409 -0.098039
C36   C     C_R   0.695596 0.108752 0.813894 -0.077121
C37   C     C_R   0.788531 0.052253 0.786702 0.089096
C38   C     C_3   0.853979 0.054991 0.741004 -0.395190
C39   C     C_3   0.912919 0.936464 0.685492 0.540238
C40   C     C_R   0.711459 0.562525 0.340010 -0.030885
C41   C     C_R   0.804608 0.495637 0.304474 -0.033350
C42   C     C_R   0.845189 0.420889 0.212161 -0.163968
C43   C     C_R   0.794756 0.421148 0.155308 -0.085881
C44   C     C_R   0.699331 0.494686 0.193134 -0.105642
C45   C     C_R   0.859833 0.500105 0.360283 0.893721
C46   C     C_R   0.659938 0.559252 0.286045 0.090337
C47   C     C_3   0.587339 0.672932 0.349718 0.359358
C48   C     C_3   0.645612 0.676678 0.410188 -0.298411
C49   C     C_R   0.712256 0.561882 0.723593 0.089335
C50   C     C_R   0.805123 0.498682 0.694671 -0.153965
C51   C     C_R   0.845119 0.432104 0.721436 -0.271972
C52   C     C_R   0.792048 0.431427 0.775748 0.634367
C53   C     C_R   0.697437 0.498286 0.804718 -0.173013
C54   C     C_R   0.661088 0.562518 0.777021 -0.070469
C55   C     C_3   0.574640 0.644728 0.784039 -0.461611
C56   C     C_R   0.139106 0.501271 0.641076 0.828762
C57   C     C_3   0.632649 0.644219 0.722748 0.545534
C58   C     C_R   0.360360 0.499798 0.139956 0.857840
C59   C     C_R   0.640367 0.499685 0.860304 0.871572
C60   C     C_R   0.362867 0.779690 0.140006 0.904857
C61   C     C_R   0.640233 0.219857 0.860519 0.818237
C62   C     C_R   0.640980 0.499916 0.139398 0.844529
C63   C     C_R   0.360024 0.499795 0.859809 0.816436
C64   C     C_R   0.237294 0.600160 0.672644 -0.109494
C65   C     C_R   0.260103 0.670504 0.705633 -0.083363
C66   C     C_R   0.264606 0.712774 0.792715 -0.140225
H1    H     H_    0.139122 0.098802 0.461063 0.104808
H2    H     H_    0.233547 0.569342 0.606468 0.213637
H3    H     H_    0.584155 0.100961 0.832910 0.239526
H4    H     H_    0.826840 0.085561 0.701293 0.205049
H5    H     H_    0.917513 0.366374 0.183337 0.205806
H6    H     H_    0.917283 0.380544 0.700729 0.210371
H7    H     H_    0.534604 0.615749 0.753395 0.176907
H8    H     H_    0.537681 0.716839 0.852914 0.274393
O1    O     O_3   1.000000 0.500000 0.500000 -0.521173
O2    O     O_R   0.944910 0.439280 0.615800 -0.657435
O3    O     O_R   0.115820 0.560710 0.444920 -0.558787
O4    O     O_R   0.823500 0.731590 0.615800 -0.664847
O5    O     O_R   0.115770 0.268420 0.323490 -0.680924
O6    O     O_3   0.500040 0.499910 0.999960 -0.540650
O7    O     O_R   0.384230 0.439200 0.055040 -0.587214
O8    O     O_R   0.555130 0.560630 0.884160 -0.623704
O9    O     O_R   0.384270 0.731490 0.176470 -0.593416
O10   O     O_R   0.676550 0.268320 0.884150 -0.611158
O11   O     O_R   0.555150 0.560600 0.176460 -0.573668
O12   O     O_R   0.944950 0.731580 0.615800 -0.584899
O13   O     O_R   0.384220 0.439220 0.884170 -0.644072
O14   O     O_R   0.676580 0.439170 0.055020 -0.675172
O15   O     O_R   0.384230 0.560650 0.884170 -0.646773
O16   O     O_R   0.384260 0.731500 0.055040 -0.629920
O17   O     O_R   0.555100 0.268330 0.884160 -0.621977
O18   O     O_R   0.384250 0.560620 0.176470 -0.591741
O19   O     O_R   0.676570 0.439190 0.884150 -0.592497
O20   O     O_R   0.115780 0.268410 0.444920 -0.627215
O21   O     O_R   0.823470 0.560720 0.615800 -0.602823
O22   O     O_R   0.115800 0.439290 0.323490 -0.672206
O23   O     O_R   0.823460 0.560740 0.444930 -0.604249
O24   O     O_R   0.115830 0.560690 0.615790 -0.656603
O25   O     O_R   0.944900 0.439310 0.323490 -0.650910
O26   O     O_R   0.115810 0.439260 0.615790 -0.650770
Zn1   Zn    Zn3+2 0.043370 0.413240 0.543370 1.002274
Zn2   Zn    Zn3+2 0.869870 0.586760 0.543380 1.076890
Zn3   Zn    Zn3+2 0.043360 0.413260 0.369880 0.993723
Zn4   Zn    Zn3+2 0.043390 0.586740 0.543370 1.076575
Zn5   Zn    Zn3+2 0.456670 0.586670 0.956580 1.028056
Zn6   Zn    Zn3+2 0.456680 0.586650 0.130080 1.113963
Zn7   Zn    Zn3+2 0.630180 0.413150 0.956570 1.039155
Zn8   Zn    Zn3+2 0.456650 0.413170 0.956580 1.051666
F1    F     F_    0.153410 0.294658 0.761727 -0.608164
C67   C     C_2   0.395816 0.885636 0.076839 0.572361
H9    H     H_    0.378592 0.912083 0.034460 0.108639
O27   O     O_2   0.471837 0.811266 0.052946 -0.549199
F2    F     F_    0.174431 0.893707 0.278639 -0.610779
F3    F     F_    0.247490 0.905305 0.381983 -0.676360
F4    F     F_    0.068212 0.096283 0.371526 -0.594632
C68   C     C_2   0.290726 0.298276 0.193727 0.598641
H10   H     H_    0.273440 0.288602 0.242944 0.042083
O28   O     O_2   0.325961 0.225346 0.115202 -0.436335
F5    F     F_    0.388525 0.313286 0.089510 -0.587659
C69   C     C_2   0.203943 0.765801 0.373438 0.799113
H11   H     H_    0.152370 0.848336 0.415267 0.118911
O29   O     O_2   0.280603 0.733243 0.373358 -0.464728
C70   C     C_2   0.146722 0.708739 0.247488 0.359785
H12   H     H_    0.178995 0.645133 0.177316 0.081791
O30   O     O_2   0.082590 0.793062 0.269724 -0.444787
F6    F     F_    0.100545 0.752726 0.464204 -0.532252
C71   C     C_2   0.039013 0.696658 0.349371 0.484374
H13   H     H_    0.046507 0.644833 0.281037 0.000047
O31   O     O_2   0.964815 0.759940 0.406513 -0.416304
C72   C     C_2   0.663422 0.899889 0.751676 0.583554
H14   H     H_    0.699867 0.826764 0.743353 0.122612
O32   O     O_2   0.583726 0.942479 0.761622 -0.443350
C73   C     C_2   0.892413 0.106975 0.801773 0.438044
H15   H     H_    0.946815 0.103519 0.773189 0.118084
O33   O     O_2   0.863370 0.152893 0.882383 -0.499438
F7    F     F_    0.921890 0.891373 0.596212 -0.536170
C74   C     C_2   0.999657 0.885299 0.701063 0.435442
H16   H     H_    0.000319 0.911273 0.768315 0.009489
O34   O     O_2   0.069626 0.813499 0.638401 -0.410423
C75   C     C_2   0.846484 0.349028 0.058264 0.539571
H17   H     H_    0.827098 0.371843 0.013861 0.129561
O35   O     O_2   0.914939 0.263553 0.027171 -0.517397
F8    F     F_    0.578905 0.724901 0.312405 -0.643089
C76   C     C_2   0.278366 0.699009 0.648636 0.477649
H18   H     H_    0.300939 0.748433 0.670310 0.052774
O36   O     O_2   0.269927 0.665946 0.575383 -0.477181
C77   C     C_2   0.497879 0.698947 0.387956 0.468712
H19   H     H_    0.443906 0.778616 0.439770 0.117932
O37   O     O_2   0.485118 0.632213 0.361796 -0.515338
C78   C     C_2   0.676465 0.743131 0.420985 0.698774
H20   H     H_    0.628847 0.826452 0.464269 0.098992
O38   O     O_2   0.752976 0.705611 0.381674 -0.563022
C79   C     C_2   0.609082 0.697575 0.497320 0.368169
H21   H     H_    0.585989 0.653637 0.497324 0.100360
O39   O     O_2   0.605464 0.762686 0.567925 -0.499140
F9    F     F_    0.833733 0.365774 0.799434 -0.629256
C80   C     C_2   0.619662 0.611094 0.633888 0.426196
H22   H     H_    0.555326 0.659438 0.631448 0.075763
O40   O     O_2   0.679911 0.531035 0.564748 -0.578495
F10   F     F_    0.626650 0.734829 0.764784 -0.626601
C81   C     C_2   0.277097 0.796921 0.833974 0.322402
H23   H     H_    0.245038 0.856336 0.822497 0.102190
O41   O     O_2   0.325575 0.798824 0.878998 -0.581828
C82   C     C_2   0.226103 0.738145 0.938751 0.511843
H24   H     H_    0.226018 0.806047 0.976222 0.107811
O42   O     O_2   0.196245 0.718745 0.980617 -0.555277
C83   C     C_2   0.431293 0.268186 0.728600 0.600338
H25   H     H_    0.467546 0.292473 0.711546 -0.007844
O43   O     O_2   0.473755 0.189778 0.725758 -0.478331
F11   F     F_    0.329968 0.194483 0.742129 -0.539234
C84   C     C_2   0.056723 0.479386 0.774682 0.575085
H26   H     H_    0.022154 0.444377 0.769827 0.107754
O44   O     O_2   0.012548 0.569784 0.801506 -0.580816
C85   C     C_2   0.283316 0.107858 0.187111 0.351519
H27   H     H_    0.227204 0.164916 0.182756 0.126036
O45   O     O_2   0.357229 0.087965 0.164590 -0.517875

loop_
_geom_bond_atom_site_label_1
_geom_bond_atom_site_label_2
_ccdc_geom_bond_type
C33   C72   S    
O6    Zn8   S    
O25   Zn3   S    
C48   C79   S    
C39   C74   S    
C80   H22   S    
C48   C78   S    
C11   F1    S    
C41   C42   A    
C13   C84   S    
C77   H19   S    
C59   O8    A    
C56   O24   A    
C23   O2    A    
C4    C8    A    
O12   Zn4   S    
C17   C67   S    
C8    C56   S    
C6    C9    A    
C38   H4    S    
C81   H23   S    
C53   C59   S    
C7    C8    A    
C83   O43   D    
C53   C54   A    
C52   C53   A    
C40   C46   A    
C74   O34   D    
O6    Zn7   S    
C26   C27   A    
C29   C30   S    
C64   H2    S    
C14   C21   S    
C28   C29   S    
C77   O37   D    
C34   O22   A    
C34   O3    A    
C5    C6    A    
C60   O9    A    
C70   O30   D    
O4    Zn2   S    
C49   C54   A    
C12   O5    A    
O6    Zn6   S    
O2    Zn1   S    
O10   Zn7   S    
C49   C57   S    
C68   H10   S    
C5    C63   S    
C18   C19   A    
O14   Zn7   S    
C38   C73   S    
C85   H27   S    
C42   H5    S    
C46   C47   S    
C55   H8    S    
O13   Zn8   S    
C35   C36   A    
O20   Zn1   S    
C44   C46   A    
C16   C17   A    
O1    Zn2   S    
C71   H13   S    
C79   O39   D    
C9    C10   A    
O23   Zn2   S    
O21   Zn2   S    
C21   F4    S    
O7    Zn8   S    
C80   O40   D    
C22   C28   A    
C21   H1    S    
O1    Zn3   S    
C1    O4    A    
O5    Zn3   S    
C14   C19   A    
C81   O41   D    
C26   F5    S    
C69   O29   D    
C17   C18   A    
C67   O27   D    
C39   F7    S    
C38   C39   S    
C29   C69   S    
C47   C77   S    
C51   C52   A    
C70   H12   S    
C24   C25   A    
O16   Zn5   S    
C76   O36   D    
C45   O25   A    
C25   C68   S    
C2    C82   S    
C83   H25   S    
C65   C76   S    
C23   C50   S    
C44   C62   S    
C25   C26   A    
C62   O14   A    
O6    Zn5   S    
C61   O10   A    
C1    C32   S    
C24   C34   S    
C67   H9    S    
C66   C81   S    
C30   C71   S    
C72   O32   D    
C43   C44   A    
C71   O31   D    
C37   C38   S    
C84   O44   D    
C47   C48   S    
C12   C15   S    
C9    C83   S    
C63   O15   A    
C50   C51   A    
C43   C75   S    
C75   H17   S    
C84   H26   S    
C6    C7    A    
C61   O17   A    
C68   O28   D    
O18   Zn6   S    
C40   C41   A    
C57   F10   S    
C49   C50   A    
C55   C57   S    
C73   H15   S    
C22   C24   A    
C58   O7    A    
C10   F11   S    
C42   C43   A    
C56   O26   A    
C3    C4    A    
C69   H11   S    
O1    Zn1   S    
C16   C85   S    
C1    O12   A    
C40   C48   S    
O8    Zn5   S    
C57   C80   S    
C54   C55   S    
C82   H24   S    
C22   C30   S    
C63   O13   A    
C14   C15   A    
O17   Zn8   S    
C31   C32   A    
O11   Zn6   S    
C47   F8    S    
C75   O35   D    
C76   H18   S    
C3    C5    A    
C27   C58   S    
C2    C66   A    
C36   C61   S    
C60   O16   A    
C30   F6    S    
C52   F9    S    
C74   H16   S    
C4    C64   A    
O9    Zn6   S    
C32   C33   A    
C19   C20   S    
C82   O42   D    
C72   H14   S    
C45   O23   A    
C64   C65   A    
C20   F3    S    
C11   C13   A    
O1    Zn4   S    
O24   Zn4   S    
C29   C70   S    
O26   Zn1   S    
C33   C35   A    
C23   O21   A    
C2    C3    A    
C78   O38   D    
C20   F2    S    
C85   O45   D    
C10   C11   A    
C55   H7    S    
C31   C37   A    
C7    C13   A    
C62   O11   A    
C20   C21   S    
C35   H3    S    
C18   C60   S    
C36   C37   A    
C65   C66   A    
C51   H6    S    
O22   Zn3   S    
O15   Zn5   S    
C27   C28   A    
C31   C39   S    
C73   O33   D    
C41   C45   S    
C78   H20   S    
O3    Zn4   S    
C59   O19   A    
C79   H21   S    
C12   O20   A    
C58   O18   A    
O19   Zn7   S    
C15   C16   A    
