data_str_m2_o8_o22_f0_pcu.sym.147
_audit_creation_date              2013-03-05T16:45:23-0500
_audit_creation_method            fapswitch 2.2
_symmetry_space_group_name_H-M    P1
_symmetry_Int_Tables_number       1
_space_group_crystal_system       triclinic
_cell_length_a                    11.051981
_cell_length_b                    15.953658
_cell_length_c                    17.084394
_cell_angle_alpha                 94.799232
_cell_angle_beta                  95.761459
_cell_angle_gamma                 90.625648
_cell_volume                      2986.02056595

loop_
_atom_site_label
_atom_site_type_symbol
_atom_site_description
_atom_site_fract_x
_atom_site_fract_y
_atom_site_fract_z
_atom_type_partial_charge
O1    O     O_R   0.494300 0.420530 0.382500 -0.516158
O2    O     O_R   0.504600 0.563720 0.388950 -0.546825
C1    C     C_R   0.500433 0.490431 0.347705 0.969591
O3    O     O_R   0.312540 0.428400 0.496760 -0.590045
O4    O     O_R   0.322840 0.571590 0.503210 -0.506447
C2    C     C_R   0.260071 0.501964 0.497584 0.914308
Cu1   Cu    Cu3+1 0.493900 0.415220 0.496180 1.144009
Cu2   Cu    Cu3+1 0.506100 0.584780 0.503820 1.147292
O5    O     O_R   0.495400 0.436280 0.611050 -0.555056
O6    O     O_R   0.505700 0.579470 0.617500 -0.543883
O7    O     O_R   0.677160 0.428410 0.496790 -0.525277
O8    O     O_R   0.687460 0.571600 0.503240 -0.558164
C3    C     C_R   0.489961 0.509344 0.650476 0.908737
C4    C     C_R   0.740276 0.498431 0.497035 0.955845
C5    C     C_3   0.068373 0.419495 0.458419 -0.420915
H1    H     H_    0.099218 0.375592 0.502917 0.243063
H2    H     H_    0.112838 0.395765 0.406590 0.296757
C6    C     C_3   0.925681 0.416241 0.439969 0.424328
H3    H     H_    0.146337 0.487407 0.619627 0.194114
C7    C     C_3   0.084995 0.522327 0.578690 -0.482890
C8    C     C_3   0.065228 0.577513 0.439823 0.413910
C9    C     C_3   0.122321 0.507220 0.493278 -0.263982
C10   C     C_3   0.879190 0.497127 0.493275 -0.395392
C11   C     C_3   0.948686 0.496765 0.582181 0.353289
C12   C     C_3   0.924034 0.583328 0.455968 0.203813
H4    H     H_    0.102289 0.588428 0.601095 0.283082
C13   C     C_R   0.495477 0.486958 0.259013 -0.234543
C14   C     C_R   0.499337 0.562453 0.219544 0.154312
C15   C     C_R   0.467594 0.560195 0.137782 0.103743
C16   C     C_R   0.457401 0.482796 0.092098 0.181119
C17   C     C_R   0.459909 0.407651 0.128603 0.114359
C18   C     C_R   0.477036 0.408632 0.211504 0.236362
C19   C     C_R   0.532490 0.440316 0.855991 0.266889
C20   C     C_R   0.492150 0.435966 0.774902 0.109398
C21   C     C_R   0.521813 0.517522 0.901309 0.201762
N1    N     N_2   0.449556 0.479083 0.008669 -0.158837
N2    N     N_2   0.531151 0.521853 0.984473 -0.132881
C22   C     C_R   0.478742 0.511189 0.736506 -0.262231
C23   C     C_R   0.464214 0.587669 0.782644 0.278348
C24   C     C_R   0.486828 0.589615 0.864723 -0.227097
H5    H     H_    0.472989 0.647006 0.900946 0.226962
N3    N     N_R   0.515260 0.712130 0.509560 -0.255628
C25   C     C_R   0.450309 0.758146 0.453004 0.450958
C26   C     C_R   0.459911 0.846944 0.457867 -0.252871
C27   C     C_R   0.533236 0.892074 0.517797 0.288038
C28   C     C_R   0.596696 0.846966 0.573651 -0.260563
C29   C     C_R   0.584772 0.758839 0.571047 0.319241
C30   C     C_R   0.546316 0.159063 0.550672 0.037593
C31   C     C_R   0.562126 0.245939 0.542118 0.380024
C32   C     C_R   0.470079 0.109397 0.493630 0.155083
N4    N     N_2   0.547103 0.981908 0.522624 -0.143398
N5    N     N_2   0.458727 0.019257 0.490711 -0.159215
N6    N     N_R   0.484730 0.287850 0.490450 -0.304121
H6    H     H_    0.653189 0.881309 0.621529 0.200983
C33   C     C_R   0.395449 0.240556 0.443192 0.391393
C34   C     C_R   0.396120 0.151359 0.438845 0.031207
H7    H     H_    0.410127 0.881657 0.413775 0.224338
I1    I     I_    0.898839 0.697523 0.535802 -0.025161
N7    N     N_R   0.891329 0.551273 0.641652 0.139921
O9    O     O_R   0.783563 0.530477 0.658951 -0.337751
O10   O     O_R   0.957567 0.601482 0.693419 -0.277747
I2    I     I_    0.399181 0.322969 0.722152 -0.116178
N8    N     N_R   0.590204 0.369450 0.891204 0.165457
O11   O     O_R   0.655307 0.380895 0.959189 -0.265177
O12   O     O_R   0.602602 0.298869 0.849138 -0.244250
I3    I     I_    0.442626 0.291737 0.055318 0.076973
N9    N     N_R   0.482069 0.329310 0.245678 0.172650
O13   O     O_R   0.393401 0.274502 0.228112 -0.255408
O14   O     O_R   0.584542 0.304689 0.279628 -0.229407
N10   N     N_R   0.412665 0.660388 0.748456 0.161578
O15   O     O_R   0.434491 0.735066 0.784296 -0.285068
O16   O     O_R   0.325357 0.651003 0.691179 -0.309963
I4    I     I_    0.421218 0.673262 0.082346 -0.063004
I5    I     I_    0.577554 0.679922 0.272185 0.021167
N11   N     N_R   0.668924 0.285848 0.583103 0.172564
O17   O     O_R   0.661097 0.335136 0.646698 -0.285025
O18   O     O_R   0.770461 0.246954 0.576072 -0.255193
I6    I     I_    0.628280 0.111433 0.657285 0.003117
I7    I     I_    0.675852 0.714893 0.674904 -0.025162
N12   N     N_R   0.290468 0.278881 0.406349 0.146096
O19   O     O_R   0.299872 0.334745 0.356346 -0.274604
O20   O     O_R   0.183024 0.249065 0.414874 -0.305654
I8    I     I_    0.282952 0.078039 0.349013 0.053712
N13   N     N_R   0.370652 0.720918 0.386373 0.155267
O21   O     O_R   0.324093 0.646369 0.384367 -0.264745
O22   O     O_R   0.332501 0.765976 0.328940 -0.289635
N14   N     N_R   0.890664 0.420701 0.353949 0.169877
O23   O     O_R   0.776738 0.410941 0.326900 -0.244265
O24   O     O_R   0.968683 0.404661 0.302706 -0.225340
N15   N     N_R   0.879026 0.332455 0.458308 0.172254
O25   O     O_R   0.954147 0.273168 0.476790 -0.247945
O26   O     O_R   0.770257 0.306508 0.429624 -0.229392
I9    I     I_    0.959196 0.379920 0.639288 0.011678
N16   N     N_R   0.123521 0.662341 0.458555 0.157819
O27   O     O_R   0.178045 0.687297 0.527836 -0.310949
O28   O     O_R   0.102868 0.719233 0.408688 -0.194036
N17   N     N_R   0.083375 0.552026 0.355536 0.162716
O29   O     O_R   0.028610 0.590352 0.298151 -0.171760
O30   O     O_R   0.178871 0.509757 0.338634 -0.321081
N18   N     N_R   0.848977 0.605078 0.384118 0.169569
O31   O     O_R   0.863860 0.678450 0.357773 -0.220642
O32   O     O_R   0.753234 0.561651 0.354956 -0.345707

loop_
_geom_bond_atom_site_label_1
_geom_bond_atom_site_label_2
_geom_bond_distance
_ccdc_geom_bond_type
C17   I3    2.140235 S    
C33   C34   1.418876 A    
N8    O12   1.300360 A    
N11   O17   1.297550 A    
C5    C6    1.576308 S    
H3    C7    1.112364 S    
C29   I7    2.125565 S    
N14   O23   1.300005 A    
C14   I5    2.143524 S    
N17   O29   1.300233 A    
Cu1   Cu2   2.698559 S    
C27   C28   1.382708 A    
Cu1   O7    2.032896 S    
O4    C2    1.294712 A    
C14   C15   1.403021 A    
C21   N2    1.409998 S    
Cu2   N3    2.026781 S    
C22   C23   1.415838 A    
O7    C4    1.310005 A    
C15   I4    2.149907 S    
C8    N16   1.488645 S    
C27   N4    1.434285 S    
C5    H1    1.107702 S    
C2    C9    1.520366 S    
C20   I2    2.149299 S    
C5    H2    1.097364 S    
C30   I6    2.151949 S    
O5    C3    1.301662 A    
C5    C9    1.562020 S    
C7    C11   1.564625 S    
C32   N5    1.438415 S    
C10   C11   1.632294 S    
C31   N11   1.425439 S    
N10   O15   1.301745 A    
C19   N8    1.448966 S    
C30   C32   1.406709 A    
N7    O9    1.301705 A    
O1    Cu1   1.951512 S    
C8    C9    1.600280 S    
C25   N13   1.448417 S    
O3    Cu1   2.018595 S    
N17   O30   1.302370 A    
N6    C33   1.384423 A    
N7    O10   1.303226 A    
C6    C10   1.634130 S    
C6    N15   1.496070 S    
N13   O21   1.287134 A    
O3    C2    1.314369 A    
C23   C24   1.397129 A    
C32   C34   1.398405 A    
N9    O13   1.301252 A    
N9    O14   1.299729 A    
C4    C10   1.543337 S    
C25   C26   1.414315 A    
C15   C16   1.401660 A    
C8    N17   1.496972 S    
C12   N18   1.479335 S    
N15   O26   1.301346 A    
C17   C18   1.408685 A    
C26   H7    1.081712 S    
Cu2   O8    2.018596 S    
C28   H6    1.083558 S    
N18   O32   1.291628 A    
C19   C20   1.407848 A    
N16   O28   1.302528 A    
N11   O18   1.299443 A    
C3    C22   1.485224 S    
C18   N9    1.436685 S    
N12   O20   1.300595 A    
C24   H5    1.082563 S    
C7    C9    1.556190 S    
N14   O24   1.301645 A    
N3    C25   1.406680 A    
Cu1   N6    2.027108 S    
C26   C27   1.385908 A    
C34   I8    2.137806 S    
Cu1   O5    1.961510 S    
C8    C12   1.614013 S    
C28   C29   1.407257 A    
C30   C31   1.416546 A    
C13   C18   1.432927 A    
C20   C22   1.417229 A    
Cu2   O6    1.951512 S    
O2    Cu2   1.961510 S    
N13   O22   1.303413 A    
N12   O19   1.295409 A    
O6    C3    1.311546 A    
O4    Cu2   2.032896 S    
C6    N14   1.489454 S    
C16   N1    1.415455 S    
C1    C13   1.507081 S    
O2    C1    1.311553 A    
O8    C4    1.311942 A    
N4    N5    1.251581 D    
C11   I9    2.174060 S    
C33   N12   1.431597 S    
N15   O25   1.303116 A    
C16   C17   1.396177 A    
C7    H4    1.099321 S    
C11   N7    1.477784 S    
C31   N6    1.384769 A    
N18   O31   1.303306 A    
C19   C21   1.411535 A    
C23   N10   1.439671 S    
C21   C24   1.394450 A    
N3    C29   1.394081 A    
C10   C12   1.654778 S    
N16   O27   1.302035 A    
N8    O11   1.301515 A    
N1    N2    1.248318 D    
C12   I1    2.220010 S    
C13   C14   1.430973 A    
N10   O16   1.301457 A    
O1    C1    1.311095 A    
