data_str_m3_o12_o17_f0_pcu.sym.197
_audit_creation_date              2012-12-10T17:18:16-0500
_audit_creation_method            fapswitch 2.2
_symmetry_space_group_name_H-M    P1
_symmetry_Int_Tables_number       1
_space_group_crystal_system       triclinic
_cell_length_a                    10.110271
_cell_length_b                    10.833688
_cell_length_c                    15.009255
_cell_angle_alpha                 90.141163
_cell_angle_beta                  81.297436
_cell_angle_gamma                 95.429858
_cell_volume                      1617.65014976

loop_
_atom_site_label
_atom_site_type_symbol
_atom_type_description
_atom_site_fract_x
_atom_site_fract_y
_atom_site_fract_z
_atom_type_partial_charge
C1    C     C_R   0.556254 0.732645 0.491649 0.948863
C2    C     C_R   0.443681 0.267340 0.503728 0.949689
C3    C     C_R   0.256788 0.508039 0.978278 -0.217559
C4    C     C_R   0.743205 0.491940 0.021731 -0.217675
C5    C     C_2   0.588158 0.864506 0.479425 -0.376993
C6    C     C_2   0.411525 0.135398 0.498409 -0.378720
C7    C     C_2   0.487257 0.933870 0.475052 -0.145386
C8    C     C_2   0.512011 0.065881 0.472366 -0.146512
C9    C     C_2   0.926960 0.509876 0.507275 -0.132924
C10   C     C_2   0.073050 0.490144 0.492706 -0.134893
C11   C     C_R   0.500368 0.499863 0.673388 0.898143
C12   C     C_R   0.499631 0.500134 0.326611 0.891938
C13   C     C_R   0.620868 0.496362 0.172569 -0.255514
C14   C     C_R   0.379125 0.503612 0.827439 -0.255183
C15   C     C_R   0.499374 0.500538 0.230715 -0.073864
C16   C     C_R   0.500622 0.499455 0.769290 -0.076659
C17   C     C_R   0.378106 0.504776 0.197247 -0.259858
C18   C     C_R   0.621891 0.495233 0.802762 -0.259443
C19   C     C_R   0.377423 0.504538 0.105108 0.120283
C20   C     C_R   0.622572 0.495459 0.894901 0.120445
C21   C     C_R   0.499864 0.500177 0.046367 0.061087
C22   C     C_R   0.500130 0.499812 0.953642 0.061104
C23   C     C_R   0.622045 0.496154 0.080338 0.117777
C24   C     C_R   0.377948 0.503826 0.919670 0.117996
C25   C     C_R   0.256535 0.508403 0.070872 -0.217963
C26   C     C_R   0.743460 0.491590 0.929138 -0.217732
H1    H     H_    0.714737 0.493553 0.198876 0.162487
H2    H     H_    0.285253 0.506404 0.801131 0.162635
H3    H     H_    0.284239 0.507656 0.242703 0.160022
H4    H     H_    0.715761 0.492370 0.757306 0.160199
H5    H     H_    0.162581 0.511080 0.952525 0.142215
H6    H     H_    0.837409 0.488891 0.047485 0.142138
H7    H     H_    0.615534 0.105749 0.454316 0.188185
H8    H     H_    0.383550 0.893932 0.479321 0.189313
H9    H     H_    0.308286 0.095092 0.516542 0.150319
H10   H     H_    0.691585 0.904883 0.475295 0.149904
H11   H     H_    0.109815 0.422864 0.443622 0.162311
H12   H     H_    0.890202 0.577168 0.556350 0.161947
N1    N     N_2   0.842700 0.448880 0.462930 -0.197177
N2    N     N_2   0.157300 0.551120 0.537070 -0.197626
O1    O     O_R   0.431060 0.692470 0.507460 -0.611925
O2    O     O_R   0.568940 0.307530 0.492540 -0.611436
O3    O     O_R   0.651120 0.659650 0.483670 -0.613969
O4    O     O_R   0.348880 0.340350 0.516330 -0.613698
O5    O     O_R   0.389960 0.516440 0.644050 -0.619855
O6    O     O_R   0.610040 0.483560 0.355950 -0.622802
O7    O     O_R   0.610030 0.483620 0.620260 -0.621491
O8    O     O_R   0.389970 0.516380 0.379740 -0.624428
Zn1   Zn    Zn3+2 0.353060 0.521920 0.515880 0.939425
Zn2   Zn    Zn3+2 0.646940 0.478080 0.484120 0.939470
H13   H     H_    0.162164 0.511691 0.115606 0.142309
H14   H     H_    0.837831 0.488307 0.884405 0.142480
H15   H     H_    0.119304 0.614297 0.583222 0.159995
H16   H     H_    0.880685 0.385687 0.416786 0.158607

loop_
_geom_bond_atom_site_label_1
_geom_bond_atom_site_label_2
_ccdc_geom_bond_type
O4    Zn1   S    
C2    O4    A    
C4    C26   A    
C25   H13   S    
O3    Zn2   S    
C15   C17   A    
C18   H4    S    
C14   C16   A    
C26   H14   S    
C17   H3    S    
C11   C16   S    
O6    Zn2   S    
C11   O7    A    
C12   C15   S    
O5    Zn1   S    
C12   O8    A    
C13   C15   A    
C7    C8    S    
C4    H6    S    
C21   C22   A    
C3    H5    S    
C3    C24   A    
C2    C6    S    
C20   C26   A    
C2    O2    A    
C10   H11   S    
C1    C5    S    
O1    Zn1   S    
O8    Zn1   S    
C17   C19   A    
O2    Zn2   S    
O7    Zn2   S    
C18   C20   A    
C8    H7    S    
C21   C23   A    
C19   C25   A    
C7    H8    S    
C22   C24   A    
C11   O5    A    
N1    H16   S    
N2    Zn1   S    
C5    H10   S    
C3    C25   A    
N1    Zn2   S    
C6    H9    S    
C13   C23   A    
C16   C18   A    
N2    H15   S    
C9    C10   S    
C14   C24   A    
C5    C7    D    
C4    C23   A    
C9    H12   S    
C10   N2    D    
C6    C8    D    
C14   H2    S    
C1    O3    A    
C9    N1    D    
C13   H1    S    
C1    O1    A    
C20   C22   A    
C19   C21   A    
C12   O6    A    
