data_str_m2_o6_o17_f0_pcu.sym.234
_audit_creation_date              2012-12-10T19:15:45-0500
_audit_creation_method            fapswitch 2.2
_symmetry_space_group_name_H-M    P1
_symmetry_Int_Tables_number       1
_space_group_crystal_system       triclinic
_cell_length_a                    16.001203
_cell_length_b                    14.77483
_cell_length_c                    15.076552
_cell_angle_alpha                 90.011118
_cell_angle_beta                  90.027575
_cell_angle_gamma                 89.915683
_cell_volume                      3564.31951811

loop_
_atom_site_label
_atom_site_type_symbol
_atom_type_description
_atom_site_fract_x
_atom_site_fract_y
_atom_site_fract_z
_atom_type_partial_charge
C1    C     C_R   0.340929 0.500053 0.500032 0.847466
C2    C     C_R   0.659070 0.499947 0.499969 0.847577
C3    C     C_R   0.411182 0.365184 0.046428 0.366115
C4    C     C_R   0.589133 0.634547 0.953534 0.366117
C5    C     C_R   0.955955 0.582634 0.498175 0.232725
C6    C     C_R   0.044046 0.417367 0.501832 0.232711
C7    C     C_R   0.043667 0.582726 0.498218 0.216734
C8    C     C_R   0.956333 0.417276 0.501790 0.216738
C9    C     C_R   0.912662 0.499910 0.499963 -0.132727
C10   C     C_R   0.087338 0.500091 0.500043 -0.132725
C11   C     C_1   0.823003 0.499836 0.499949 0.155982
C12   C     C_1   0.176997 0.500165 0.500057 0.155956
C13   C     C_1   0.251973 0.500153 0.500051 -0.022602
C14   C     C_1   0.748027 0.499847 0.499953 -0.022543
C15   C     C_R   0.575892 0.951716 0.499183 0.240346
C16   C     C_R   0.424108 0.048283 0.500823 0.240359
C17   C     C_R   0.424085 0.952033 0.500822 0.222519
C18   C     C_R   0.575915 0.047967 0.499185 0.222528
C19   C     C_R   0.499978 0.902874 0.500005 -0.217732
C20   C     C_R   0.500022 0.097125 0.499999 -0.217718
C21   C     C_1   0.499985 0.802603 0.500002 0.379904
C22   C     C_1   0.500015 0.197397 0.500000 0.379943
C23   C     C_R   0.499996 0.499996 0.328546 0.908434
C24   C     C_R   0.499994 0.500003 0.671452 0.908500
C25   C     C_R   0.557750 0.553669 0.813770 0.350803
C26   C     C_R   0.442380 0.446187 0.186197 0.350844
C27   C     C_R   0.499998 0.500007 0.767981 -0.244406
C28   C     C_R   0.500025 0.499987 0.232012 -0.244488
C29   C     C_R   0.442288 0.446289 0.813706 0.350655
C30   C     C_R   0.557737 0.553769 0.186320 0.350730
C31   C     C_R   0.449818 0.436729 0.906392 -0.084184
C32   C     C_R   0.550321 0.563202 0.093606 -0.084316
C33   C     C_R   0.500077 0.499936 0.953242 -0.088528
C34   C     C_R   0.500098 0.499933 0.046748 -0.088439
C35   C     C_R   0.550305 0.563165 0.906455 -0.084208
C36   C     C_R   0.449905 0.436656 0.093519 -0.084224
C37   C     C_R   0.411090 0.365266 0.953416 0.366083
C38   C     C_R   0.589167 0.634553 0.046547 0.366122
Cu1   Cu    Cu3+1 0.500000 0.589220 0.500000 1.125275
Cu2   Cu    Cu3+1 0.500000 0.410780 0.500000 1.125286
N1    N     N_1   0.500000 0.276710 0.500000 -0.128633
N2    N     N_1   0.500000 0.723290 0.500000 -0.128635
O1    O     O_R   0.380310 0.575320 0.500020 -0.575358
O2    O     O_R   0.619690 0.424680 0.499980 -0.575355
O3    O     O_R   0.619690 0.575320 0.499980 -0.534012
O4    O     O_R   0.380310 0.424680 0.500020 -0.534055
O5    O     O_R   0.499980 0.575350 0.370250 -0.551212
O6    O     O_R   0.500020 0.424650 0.629750 -0.551230
O7    O     O_R   0.500020 0.575350 0.629750 -0.551300
O8    O     O_R   0.499980 0.424650 0.370250 -0.551270
Cl1   Cl    Cl    0.646055 0.594627 0.754784 -0.465324
Cl2   Cl    Cl    0.354090 0.405109 0.245119 -0.465301
Cl3   Cl    Cl    0.353993 0.405249 0.754658 -0.464650
Cl4   Cl    Cl    0.645951 0.594876 0.245466 -0.464580
Cl5   Cl    Cl    0.375380 0.266200 0.898667 -0.336607
Cl6   Cl    Cl    0.625109 0.733529 0.101202 -0.336476
Cl7   Cl    Cl    0.375791 0.265873 0.101096 -0.336995
Cl8   Cl    Cl    0.624788 0.733676 0.898860 -0.337000
Br1   Br    Br    0.104142 0.695631 0.495781 -0.250251
Br2   Br    Br    0.895858 0.304370 0.504229 -0.250248
Br3   Br    Br    0.894944 0.695411 0.495669 -0.212769
Br4   Br    Br    0.105056 0.304589 0.504336 -0.212826
Br5   Br    Br    0.680290 0.112985 0.498094 -0.262968
Br6   Br    Br    0.319708 0.887015 0.501926 -0.262982
Br7   Br    Br    0.319775 0.113764 0.501965 -0.218789
Br8   Br    Br    0.680222 0.886235 0.498052 -0.218786

loop_
_geom_bond_atom_site_label_1
_geom_bond_atom_site_label_2
_ccdc_geom_bond_type
C6    C10   A    
C7    C10   A    
C30   C32   A    
C25   Cl1   S    
C5    C9    A    
C26   Cl2   S    
C25   C27   A    
C38   Cl6   S    
C30   Cl4   S    
C15   C18   A    
C18   C20   A    
C27   C29   A    
C24   C27   S    
Cu1   O3    S    
C16   C20   A    
C6    Br4   S    
C28   C30   A    
C33   C34   A    
C4    C35   A    
C5    Br3   S    
C29   C31   A    
C23   C28   S    
C8    Br2   S    
C15   C19   A    
C9    C11   S    
C29   Cl3   S    
C3    C36   A    
C25   C35   A    
Cu2   O8    S    
C3    Cl7   S    
C7    Br1   S    
Cu2   N1    S    
C33   C35   A    
C4    C38   A    
Cu1   N2    S    
C34   C36   A    
C32   C38   A    
C2    O3    A    
C17   Br6   S    
Cu1   O1    S    
C2    C14   S    
C11   C14   T    
C1    O4    A    
C22   N1    T    
C23   O5    A    
C31   C33   A    
Cu2   O4    S    
Cu1   Cu2   S    
C21   N2    T    
C37   Cl5   S    
Cu1   O7    S    
C31   C37   A    
Cu2   O2    S    
C1    C13   S    
C12   C13   T    
C3    C37   A    
Cu1   O5    S    
C18   Br5   S    
C4    Cl8   S    
C24   O7    A    
Cu2   O6    S    
C5    C7    A    
C8    C9    A    
C23   O8    A    
C6    C8    A    
C16   Br7   S    
C17   C19   A    
C32   C34   A    
C10   C12   S    
C15   Br8   S    
C26   C28   A    
C1    O1    A    
C2    O2    A    
C26   C36   A    
C20   C22   S    
C16   C17   A    
C19   C21   S    
C24   O6    A    
