data_str_m9_o18_o28_f0_sra.sym.86
_audit_creation_date              2013-03-05T15:53:33-0500
_audit_creation_method            fapswitch 2.2
_symmetry_space_group_name_H-M    P1
_symmetry_Int_Tables_number       1
_space_group_crystal_system       triclinic
_cell_length_a                    30.476837
_cell_length_b                    7.258553
_cell_length_c                    25.932078
_cell_angle_alpha                 90.007596
_cell_angle_beta                  112.117227
_cell_angle_gamma                 90.073111
_cell_volume                      5314.50247938

loop_
_atom_site_label
_atom_site_type_symbol
_atom_site_description
_atom_site_fract_x
_atom_site_fract_y
_atom_site_fract_z
_atom_type_partial_charge
O1    O     O_R   0.295360 0.592990 0.320420 -0.569792
O2    O     O_R   0.704640 0.407010 0.679580 -0.591955
O3    O     O_R   0.204640 0.092990 0.179580 -0.570681
O4    O     O_R   0.795360 0.907010 0.820420 -0.575077
O5    O     O_R   0.294060 0.265620 0.213230 -0.556254
O6    O     O_R   0.705940 0.734380 0.786770 -0.556351
O7    O     O_R   0.205940 0.765620 0.286770 -0.548169
O8    O     O_R   0.794060 0.234380 0.713230 -0.577843
C1    C     C_R   0.304143 0.432183 0.199853 0.969225
C2    C     C_R   0.695870 0.567793 0.800146 0.964988
C3    C     C_R   0.195373 0.931957 0.299703 0.973507
C4    C     C_R   0.803862 0.067922 0.699533 0.963020
O9    O     O_R   0.300850 0.263360 0.322080 -0.595591
O10   O     O_R   0.699150 0.736640 0.677920 -0.573198
O11   O     O_R   0.199150 0.763360 0.177920 -0.595174
O12   O     O_R   0.800850 0.236640 0.822080 -0.589568
O13   O     O_R   0.211480 0.091820 0.289210 -0.572123
O14   O     O_R   0.788520 0.908180 0.710790 -0.553874
O15   O     O_R   0.288520 0.591820 0.210790 -0.572912
O16   O     O_R   0.711480 0.408180 0.789210 -0.572303
C5    C     C_R   0.313041 0.432034 0.343469 0.996681
C6    C     C_R   0.687151 0.568203 0.656428 0.997832
C7    C     C_R   0.187000 0.931735 0.156493 0.997059
C8    C     C_R   0.812983 0.068250 0.843512 1.002135
O17   O     O_3   0.220670 0.426670 0.239090 -0.275310
O18   O     O_3   0.779330 0.573330 0.760910 -0.282615
O19   O     O_3   0.279330 0.926670 0.260910 -0.280412
O20   O     O_3   0.720670 0.073330 0.739090 -0.279510
V1    V     V_3+5 0.255440 0.152290 0.252020 1.252782
V2    V     V_3+5 0.744560 0.847710 0.747980 1.259426
V3    V     V_3+5 0.244560 0.652290 0.247980 1.257795
V4    V     V_3+5 0.755440 0.347710 0.752020 1.236587
C9    C     C_R   0.848837 0.058465 0.900909 -0.272472
C10   C     C_R   0.151075 0.941341 0.099126 -0.270535
C11   C     C_R   0.651235 0.558941 0.599086 -0.272107
C12   C     C_R   0.348871 0.443411 0.400867 -0.270597
C13   C     C_R   0.871276 0.057933 0.000946 -0.138140
C14   C     C_R   0.128502 0.940916 0.999070 -0.139691
C15   C     C_R   0.629428 0.536232 0.499380 -0.134053
C16   C     C_R   0.370893 0.466508 0.500612 -0.144583
C17   C     C_R   0.835631 0.062175 0.947562 0.303161
C18   C     C_R   0.164212 0.938087 0.052417 0.301837
C19   C     C_R   0.664482 0.561327 0.552512 0.312512
C20   C     C_R   0.335475 0.449857 0.447364 0.296117
C21   C     C_R   0.896929 0.041640 0.908832 -0.227812
C22   C     C_R   0.102965 0.956915 0.091278 -0.223314
C23   C     C_R   0.603275 0.538079 0.591237 -0.226975
C24   C     C_R   0.397123 0.453711 0.408895 -0.224037
C25   C     C_R   0.933280 0.029469 0.962934 0.142686
C26   C     C_R   0.066534 0.967861 0.037189 0.142035
C27   C     C_R   0.567119 0.518205 0.537255 0.142679
C28   C     C_R   0.433395 0.472528 0.462885 0.142395
C29   C     C_R   0.919670 0.046208 0.009411 -0.079443
C30   C     C_R   0.080107 0.951051 0.990682 -0.080197
C31   C     C_R   0.581384 0.510011 0.491102 -0.082757
C32   C     C_R   0.419152 0.484035 0.509011 -0.078281
C33   C     C_R   0.982473 0.001340 0.972311 0.021508
C34   C     C_R   0.017310 0.995117 0.027832 0.023530
C35   C     C_R   0.517507 0.505865 0.527728 0.023906
C36   C     C_R   0.483084 0.482211 0.472463 0.019343
C37   C     C_R   0.002005 0.020514 0.072292 -0.260690
C38   C     C_R   0.997725 0.974861 0.927855 -0.267885
C39   C     C_R   0.499452 0.466894 0.428538 -0.261350
C40   C     C_R   0.501210 0.520953 0.571698 -0.268094
C41   C     C_R   0.954458 0.046459 0.063865 0.330119
C42   C     C_R   0.045270 0.949187 0.936257 0.333801
C43   C     C_R   0.547382 0.479221 0.437108 0.327334
C44   C     C_R   0.453291 0.511567 0.563097 0.332698
H1    H     H_    0.095405 0.958985 0.128621 0.117368
H2    H     H_    0.904564 0.039869 0.871545 0.123969
H3    H     H_    0.404814 0.450190 0.371664 0.123119
H4    H     H_    0.595747 0.534877 0.628580 0.123828
H5    H     H_    0.860582 0.057939 0.036225 0.220543
H6    H     H_    0.139126 0.941187 0.963737 0.220454
H7    H     H_    0.640097 0.541867 0.464106 0.219817
H8    H     H_    0.360146 0.467514 0.535837 0.221065
H9    H     H_    0.026470 0.026100 0.114861 0.175213
H10   H     H_    0.973203 0.967866 0.885329 0.184692
H11   H     H_    0.475818 0.440385 0.386413 0.187441
H12   H     H_    0.524858 0.546494 0.613878 0.183590
C45   C     C_R   0.061861 0.145065 0.437462 0.694392
C46   C     C_R   0.909303 0.910884 0.526569 0.681012
C47   C     C_R   0.422512 0.342979 0.037091 0.662799
C48   C     C_R   0.577701 0.653934 0.962824 0.689914
N1    N     N_R   0.058927 0.990204 0.405552 -0.151705
N2    N     N_R   0.917170 0.048878 0.564911 -0.157276
N3    N     N_R   0.426681 0.473624 0.076583 -0.175297
N4    N     N_R   0.573716 0.522679 0.923552 -0.156824
C49   C     C_R   0.016544 0.896970 0.389165 0.624445
C50   C     C_R   0.951059 0.180372 0.571574 0.728844
C51   C     C_R   0.458928 0.613474 0.087028 0.651925
C52   C     C_R   0.541345 0.383268 0.912973 0.725980
C53   C     C_R   0.990272 0.891573 0.423887 -0.197730
C54   C     C_R   0.979040 0.178042 0.538456 -0.229263
C55   C     C_R   0.489111 0.627568 0.056804 -0.209338
C56   C     C_R   0.510997 0.369778 0.943001 -0.225464
C57   C     C_R   0.999555 0.026432 0.465770 0.016251
C58   C     C_R   0.971281 0.035840 0.498528 0.016296
C59   C     C_R   0.484978 0.494233 0.015225 0.019771
C60   C     C_R   0.515120 0.503107 0.984572 0.022691
C61   C     C_R   0.035073 0.159374 0.471913 -0.202322
C62   C     C_R   0.935083 0.903575 0.491044 -0.201419
C63   C     C_R   0.450805 0.351649 0.004449 -0.200233
C64   C     C_R   0.549312 0.645617 0.995359 -0.214004
C65   C     C_R   0.953996 0.760440 0.416109 0.256763
C66   C     C_R   0.014567 0.312190 0.544188 0.259622
C67   C     C_R   0.523562 0.768912 0.067403 0.273341
C68   C     C_R   0.476482 0.228677 0.932312 0.262423
C69   C     C_R   0.926596 0.766235 0.449300 0.255611
C70   C     C_R   0.042341 0.302592 0.511438 0.262007
C71   C     C_R   0.553520 0.776940 0.037461 0.247705
C72   C     C_R   0.446542 0.220557 0.962271 0.253582
O21   O     O_2   0.087921 0.289730 0.432931 -0.487875
O22   O     O_2   0.877018 0.780162 0.523763 -0.438329
O23   O     O_2   0.391515 0.203776 0.030448 -0.430009
O24   O     O_2   0.608641 0.793300 0.969390 -0.436940
O25   O     O_2   0.996412 0.830973 0.337008 -0.406488
O26   O     O_2   0.957430 0.312212 0.610353 -0.443386
O27   O     O_2   0.461562 0.737397 0.126821 -0.437734
O28   O     O_2   0.538894 0.258563 0.873441 -0.445207
C73   C     C_R   0.908630 0.998175 0.654762 0.562972
C74   C     C_R   0.091275 0.818951 0.340717 0.567843
C75   C     C_R   0.586352 0.599162 0.837610 0.568409
C76   C     C_R   0.413400 0.391446 0.162818 0.577394
C77   C     C_R   0.881212 0.001283 0.688476 0.342862
C78   C     C_R   0.119505 0.834252 0.309017 0.461326
C79   C     C_R   0.615866 0.610411 0.806558 0.343528
C80   C     C_R   0.383775 0.383543 0.193157 0.469761
C81   C     C_R   0.833220 0.060656 0.665232 -0.497511
C82   C     C_R   0.162145 0.937261 0.329547 -0.584432
C83   C     C_R   0.664389 0.559134 0.831887 -0.505744
C84   C     C_R   0.335742 0.440553 0.168242 -0.579563
C85   C     C_R   0.813236 0.114877 0.608407 0.459731
C86   C     C_R   0.175666 0.019091 0.383091 0.450333
C87   C     C_R   0.682619 0.496827 0.887996 0.454278
C88   C     C_R   0.318129 0.506527 0.112547 0.453466
C89   C     C_R   0.841218 0.113944 0.575829 0.262326
C90   C     C_R   0.143819 0.018542 0.411225 0.314684
C91   C     C_R   0.652349 0.479895 0.917560 0.259480
C92   C     C_R   0.348638 0.521517 0.083208 0.324792
C93   C     C_R   0.888854 0.056129 0.598993 -0.203947
C94   C     C_R   0.097199 0.944717 0.385141 -0.339398
C95   C     C_R   0.604380 0.531812 0.892417 -0.204462
C96   C     C_R   0.396226 0.463629 0.107993 -0.326370
N5    N     N_R   0.942457 0.078774 0.111676 0.247998
O29   O     O_R   0.919133 0.226355 0.114181 -0.301480
O30   O     O_R   0.962103 0.980512 0.156462 -0.283599
N6    N     N_R   0.057225 0.915401 0.888477 0.247773
O31   O     O_R   0.081000 0.768511 0.886537 -0.309424
O32   O     O_R   0.037132 0.011163 0.843258 -0.302801
N7    N     N_R   0.560891 0.454141 0.390085 0.251044
O33   O     O_R   0.591634 0.328019 0.391494 -0.294858
O34   O     O_R   0.536364 0.531750 0.342739 -0.276636
N8    N     N_R   0.439959 0.537508 0.610206 0.247370
O35   O     O_R   0.411187 0.670195 0.609908 -0.310337
O36   O     O_R   0.463393 0.454012 0.656899 -0.301644
O37   O     O_3   0.766746 0.173190 0.583086 -0.635479
H13   H     H_    0.748549 0.145574 0.606646 0.322294
O38   O     O_3   0.220574 0.089803 0.411151 -0.623119
H14   H     H_    0.242477 0.049345 0.393383 0.325391
O39   O     O_3   0.729616 0.448185 0.915350 -0.628126
H15   H     H_    0.749078 0.494760 0.895080 0.320596
O40   O     O_3   0.271514 0.560273 0.085335 -0.628593
H16   H     H_    0.251639 0.514198 0.105151 0.323217
N9    N     N_R   0.820843 0.171045 0.518573 0.290981
O41   O     O_R   0.844058 0.280481 0.498211 -0.278299
O42   O     O_R   0.778526 0.117294 0.486771 -0.196285
N10   N     N_R   0.161654 0.065294 0.469494 0.291083
O43   O     O_R   0.189645 0.206018 0.488300 -0.168249
O44   O     O_R   0.151570 0.961520 0.504478 -0.286898
N11   N     N_R   0.670653 0.411324 0.973771 0.290702
O45   O     O_R   0.711846 0.465079 0.008793 -0.194685
O46   O     O_R   0.646503 0.292957 0.990120 -0.286977
N12   N     N_R   0.330852 0.593703 0.027419 0.290007
O47   O     O_R   0.355387 0.713365 0.012118 -0.276884
O48   O     O_R   0.289610 0.542721 0.991850 -0.200672
N13   N     N_R   0.213154 0.931986 0.057737 0.247679
O49   O     O_R   0.246995 0.994458 0.101961 -0.374930
O50   O     O_R   0.223799 0.879637 0.015855 -0.251391
N14   N     N_R   0.786682 0.070212 0.942143 0.247626
O51   O     O_R   0.752738 0.008625 0.897868 -0.376673
O52   O     O_R   0.776088 0.123722 0.983957 -0.250687
N15   N     N_R   0.286539 0.441154 0.441982 0.246062
O53   O     O_R   0.252324 0.493591 0.396645 -0.367820
O54   O     O_R   0.276166 0.396971 0.484710 -0.252474
N16   N     N_R   0.713075 0.586100 0.557982 0.246192
O55   O     O_R   0.742765 0.680527 0.598968 -0.385354
O56   O     O_R   0.726849 0.528410 0.518980 -0.251285
N17   N     N_R   0.946243 0.613536 0.376504 0.285061
O57   O     O_R   0.979981 0.496874 0.381518 -0.338610
O58   O     O_R   0.904634 0.588856 0.337645 -0.215897
N18   N     N_R   0.024106 0.457410 0.584403 0.289185
O59   O     O_R   0.997069 0.602248 0.573448 -0.322974
O60   O     O_R   0.063418 0.457251 0.627951 -0.226390
N19   N     N_R   0.529735 0.904310 0.109793 0.288660
O61   O     O_R   0.566751 0.897787 0.155969 -0.232573
O62   O     O_R   0.502309 0.047978 0.099002 -0.345500
N20   N     N_R   0.470088 0.094079 0.889657 0.288128
O63   O     O_R   0.433717 0.104948 0.842910 -0.228802
O64   O     O_R   0.496665 0.947920 0.900408 -0.311443
N21   N     N_R   0.890563 0.629142 0.440261 0.295594
O65   O     O_R   0.846271 0.673538 0.414684 -0.198470
O66   O     O_R   0.902258 0.456094 0.447907 -0.311011
N22   N     N_R   0.079282 0.436133 0.520733 0.285936
O67   O     O_R   0.123360 0.386879 0.544883 -0.203740
O68   O     O_R   0.068884 0.609969 0.511722 -0.332441
N23   N     N_R   0.588888 0.918823 0.051496 0.292978
O69   O     O_R   0.576295 0.090769 0.042763 -0.317604
O70   O     O_R   0.632861 0.878241 0.080662 -0.204867
N24   N     N_R   0.411092 0.078965 0.948116 0.292959
O71   O     O_R   0.423586 0.906893 0.956729 -0.311383
O72   O     O_R   0.367136 0.119994 0.919005 -0.204736
O73   O     O_3   0.955165 0.938746 0.674728 -0.649577
H17   H     H_    0.964980 0.899608 0.714007 0.403432
O74   O     O_3   0.064453 0.660963 0.332620 -0.583796
H18   H     H_    0.064908 0.621894 0.369481 0.366068
O75   O     O_3   0.539268 0.651631 0.815742 -0.642856
H19   H     H_    0.530885 0.699872 0.777550 0.401591
O76   O     O_3   0.459282 0.328030 0.188819 -0.592879
H20   H     H_    0.475722 0.328330 0.162435 0.350181
O77   O     O_3   0.902771 0.947323 0.743566 -0.723076
H21   H     H_    0.881364 0.965706 0.763776 0.305654
O78   O     O_3   0.105784 0.734214 0.260105 -0.644574
H22   H     H_    0.118873 0.793287 0.234572 0.294930
O79   O     O_3   0.595771 0.669569 0.751838 -0.724781
H23   H     H_    0.617678 0.649831 0.732357 0.306928
O80   O     O_3   0.403759 0.319558 0.247334 -0.655047
H24   H     H_    0.382320 0.342044 0.267287 0.289031

loop_
_geom_bond_atom_site_label_1
_geom_bond_atom_site_label_2
_geom_bond_distance
_ccdc_geom_bond_type
O17   V3    1.770792 S    
C59   C63   1.418437 A    
N11   O45   1.301261 A    
O1    C5    1.331112 A    
O37   H13   0.987904 S    
C50   C54   1.420053 A    
N3    C51   1.366243 A    
O19   V1    1.772566 S    
C9    C21   1.406818 A    
N21   O65   1.301126 A    
C17   N14   1.446038 S    
O3    C7    1.331659 A    
O40   H16   0.988282 S    
C10   C18   1.411802 A    
C66   N18   1.433119 S    
C85   C89   1.408397 A    
C88   C92   1.409874 A    
C11   C23   1.405800 A    
C67   N19   1.432896 S    
C57   C58   1.421328 A    
N22   O68   1.300958 A    
C25   C33   1.440404 A    
C33   C38   1.409170 A    
C5    C12   1.480031 S    
C45   C61   1.422992 A    
O73   H17   0.989222 S    
C87   C91   1.409368 A    
C6    C11   1.479191 S    
N11   O46   1.301181 A    
C35   C40   1.409024 A    
C26   C30   1.419966 A    
C68   C72   1.404722 A    
C47   C63   1.418973 A    
C36   C39   1.409497 A    
C50   O26   1.347969 S    
C90   N10   1.440406 S    
N6    O32   1.301450 A    
C14   C18   1.401786 A    
C44   N8    1.437648 S    
C54   C66   1.420791 A    
N15   O54   1.301572 A    
O38   H14   0.988018 S    
N5    O29   1.301430 A    
O4    C8    1.331483 A    
C55   C59   1.418552 A    
N10   O44   1.301690 A    
C54   C58   1.417097 A    
C18   N13   1.446060 S    
C52   C56   1.418969 A    
O13   V1    1.972122 S    
C74   O74   1.376829 S    
O2    V4    1.980657 S    
C66   C70   1.408573 A    
O3    V1    1.979688 S    
N12   O47   1.301096 A    
C22   H1    1.076612 S    
C13   H5    1.080614 S    
C28   C36   1.440985 A    
C53   C65   1.413607 A    
C2    C83   1.482087 S    
C91   C95   1.409980 A    
C1    O15   1.323940 A    
C60   C64   1.418391 A    
C15   C31   1.410284 A    
O78   H22   0.989897 S    
C37   H9    1.075329 S    
N13   O50   1.301831 A    
O2    C6    1.332035 A    
N7    O33   1.301420 A    
C91   N11   1.439535 S    
N20   O63   1.301116 A    
C10   C22   1.407040 A    
C15   H7    1.080756 S    
N3    C96   1.448908 S    
C11   C19   1.410354 A    
N4    C95   1.448338 S    
C42   N6    1.438124 S    
O8    C4    1.325128 A    
C76   C80   1.404399 A    
C13   C29   1.409710 A    
C34   C37   1.409236 A    
O11   C7    1.336384 A    
C86   O38   1.383589 S    
C56   C68   1.417730 A    
C76   O76   1.383335 S    
O15   V3    1.972828 S    
C35   C36   1.432230 A    
C48   O24   1.348369 S    
C13   C17   1.401846 A    
C68   N20   1.432806 S    
N21   O66   1.300802 A    
N9    O42   1.301303 A    
C67   C71   1.404838 A    
O10   V2    1.992361 S    
C40   H12   1.075262 S    
C80   C84   1.421628 A    
C89   N9    1.438223 S    
N5    O30   1.301429 A    
N14   O52   1.301816 A    
C45   N1    1.378422 A    
O39   H15   0.988264 S    
C12   C24   1.407370 A    
O5    V1    1.990775 S    
O1    V3    1.980658 S    
C39   C43   1.395145 A    
O7    V3    1.991903 S    
C4    C81   1.481182 S    
C38   C42   1.394583 A    
C43   N7    1.437971 S    
N23   O69   1.300815 A    
O8    V4    1.991910 S    
C47   O23   1.348334 S    
N6    O31   1.301433 A    
C46   O22   1.348125 S    
C90   C94   1.427470 A    
C2    O16   1.323604 A    
O76   H20   0.988565 S    
N1    C49   1.375279 A    
C78   O78   1.382236 S    
C23   C27   1.425712 A    
C19   N16   1.444583 S    
C16   C32   1.408940 A    
O75   H19   0.989232 S    
C58   C62   1.418612 A    
C49   C53   1.412898 A    
C16   H8    1.080287 S    
C63   C72   1.418121 A    
C73   O73   1.383574 S    
C74   C78   1.400228 A    
O7    C3    1.325197 A    
N15   O53   1.300929 A    
C73   C77   1.418867 A    
O77   H21   0.987814 S    
C73   C93   1.405760 A    
C87   O39   1.384074 S    
C75   C79   1.417527 A    
O80   H24   0.987995 S    
C14   C30   1.409559 A    
C21   C25   1.425960 A    
C84   C88   1.421446 A    
C7    C10   1.480036 S    
C57   C61   1.412695 A    
C40   C44   1.393450 A    
C75   C95   1.404888 A    
O79   H23   0.987784 S    
C46   C62   1.419116 A    
C26   C34   1.440573 A    
O9    C5    1.337223 A    
N12   O48   1.301255 A    
N4    C52   1.366074 A    
C20   N15   1.445977 S    
N8    O35   1.301392 A    
C55   C67   1.417896 A    
C37   C41   1.394725 A    
C81   C85   1.422062 A    
C92   N12   1.439361 S    
N10   O43   1.301277 A    
O6    V2    1.990775 S    
C85   O37   1.385241 S    
C49   O25   1.345175 S    
N13   O49   1.300964 A    
N24   O72   1.301062 A    
N2    C50   1.367708 A    
O14   V2    1.972128 S    
C48   C64   1.419018 A    
C51   O27   1.348163 S    
C12   C20   1.411895 A    
C27   C35   1.440002 A    
C74   C94   1.426785 A    
C24   H3    1.076183 S    
C4    O14   1.322784 A    
C3    C82   1.488686 S    
C53   C57   1.409073 A    
C29   C41   1.410948 A    
N14   O51   1.300979 A    
N23   O70   1.301032 A    
O16   V4    1.972825 S    
C1    C84   1.482365 S    
O9    V1    1.992361 S    
C89   C93   1.410510 A    
C3    O13   1.326910 A    
C70   N22   1.434571 S    
C21   H2    1.076433 S    
N8    O36   1.301390 A    
C38   H10   1.075433 S    
C92   C96   1.411664 A    
O5    C1    1.325104 A    
C47   N3    1.365888 A    
C86   C90   1.416880 A    
C64   C71   1.418112 A    
C15   C19   1.401396 A    
O11   V3    1.993980 S    
C39   H11   1.075290 S    
C77   O77   1.385643 S    
O12   V4    1.993982 S    
C22   C26   1.426200 A    
C83   C87   1.422098 A    
C8    C9    1.479865 S    
C59   C60   1.424639 A    
C9    C17   1.411737 A    
N18   O59   1.300365 A    
O10   C6    1.335786 A    
C69   N21   1.433339 S    
C61   C70   1.417209 A    
C31   C43   1.411039 A    
C32   C44   1.410747 A    
C46   N2    1.367115 A    
C33   C34   1.432242 A    
C48   N4    1.365982 A    
C65   C69   1.407570 A    
C80   O80   1.384561 S    
C25   C29   1.419860 A    
C56   C60   1.418417 A    
C41   N5    1.437934 S    
O20   V2    1.772566 S    
C65   N17   1.436672 S    
C14   H6    1.080629 S    
C52   O28   1.348261 S    
N1    C94   1.488460 S    
C27   C31   1.420160 A    
N7    O34   1.301428 A    
O74   H18   0.992167 S    
C75   O75   1.383655 S    
N17   O57   1.301077 A    
C82   C86   1.420885 A    
C79   C83   1.423689 A    
C23   H4    1.076212 S    
C71   N23   1.434087 S    
O6    C2    1.325119 A    
C51   C55   1.419035 A    
N19   O61   1.300648 A    
C77   C81   1.423464 A    
N9    O41   1.300147 A    
C24   C28   1.426542 A    
N22   O67   1.300940 A    
O12   C8    1.336463 A    
N24   O71   1.300813 A    
C45   O21   1.347359 S    
C16   C20   1.401323 A    
C79   O79   1.385450 S    
C78   C82   1.416950 A    
C76   C96   1.417855 A    
C62   C69   1.421512 A    
N20   O64   1.300597 A    
N17   O58   1.301068 A    
N16   O55   1.300861 A    
C30   C42   1.411007 A    
N16   O56   1.301752 A    
O18   V4    1.770793 S    
O4    V2    1.979691 S    
C28   C32   1.420293 A    
N2    C93   1.450212 S    
C72   N24   1.434134 S    
N19   O62   1.300237 A    
C88   O40   1.383863 S    
N18   O60   1.300754 A    
