data_str_m3_o18_o23_f0_pcu.sym.161
_audit_creation_date              2012-12-10T18:32:45-0500
_audit_creation_method            fapswitch 2.2
_symmetry_space_group_name_H-M    P1
_symmetry_Int_Tables_number       1
_space_group_crystal_system       triclinic
_cell_length_a                    14.963605
_cell_length_b                    15.209589
_cell_length_c                    15.753465
_cell_angle_alpha                 91.278321
_cell_angle_beta                  104.665252
_cell_angle_gamma                 81.03023
_cell_volume                      3425.56032543

loop_
_atom_site_label
_atom_site_type_symbol
_atom_type_description
_atom_site_fract_x
_atom_site_fract_y
_atom_site_fract_z
_atom_type_partial_charge
C1    C     C_R   0.440895 0.663545 0.488725 0.881616
C2    C     C_3   0.397082 0.530542 0.022365 0.163540
C3    C     C_3   0.500062 0.504024 0.083309 0.029539
C4    C     C_3   0.546855 0.409615 0.059519 -0.078941
C5    C     C_3   0.553461 0.409051 0.961610 0.117374
C6    C     C_1   0.496836 0.501344 0.174097 0.023999
C7    C     C_1   0.505837 0.502894 0.826610 -0.012827
C8    C     C_1   0.504326 0.501444 0.751013 -0.154899
C9    C     C_R   0.404309 0.758761 0.494906 -0.115062
C10   C     C_R   0.595817 0.243884 0.548432 -0.103840
C11   C     C_R   0.280423 0.885470 0.479396 -0.144507
C12   C     C_R   0.501366 0.500201 0.661627 0.897860
C13   C     C_R   0.308910 0.795623 0.465491 0.161531
C14   C     C_R   0.468429 0.813622 0.536654 -0.254263
C15   C     C_R   0.440808 0.903649 0.551441 0.065770
C16   C     C_R   0.345037 0.940795 0.521189 0.023751
C17   C     C_R   0.507939 0.958954 0.588411 0.050944
C18   C     C_R   0.480777 0.051662 0.579569 -0.007859
C19   C     C_R   0.384441 0.087484 0.564587 0.082323
C20   C     C_R   0.316321 0.032195 0.533190 0.128003
C21   C     C_R   0.602009 0.925556 0.631240 -0.169936
C22   C     C_R   0.669164 0.981923 0.652398 -0.194740
C23   C     C_R   0.559195 0.336730 0.516883 0.906576
C24   C     C_R   0.646013 0.071370 0.624579 0.095065
C25   C     C_R   0.551518 0.104711 0.584272 0.107029
C26   C     C_R   0.714645 0.127857 0.633201 0.039631
C27   C     C_R   0.688703 0.215285 0.597552 0.113758
C28   C     C_R   0.530774 0.185980 0.539553 -0.255705
C29   C     C_R   0.844741 0.636952 0.637950 0.128050
C30   C     C_R   0.757334 0.608580 0.617836 0.146318
C31   C     C_R   0.794105 0.520194 0.501285 0.225033
C32   C     C_R   0.879313 0.556272 0.512016 -0.092076
C33   C     C_R   0.903881 0.616654 0.581283 -0.036841
C34   C     C_R   0.498796 0.499609 0.338413 0.922009
C35   C     C_R   0.944087 0.530218 0.460193 0.079354
C36   C     C_R   0.038271 0.543972 0.490844 0.060930
C37   C     C_R   0.058113 0.608344 0.554969 -0.209496
C38   C     C_R   0.989313 0.650547 0.593470 0.230710
C39   C     C_R   0.916459 0.498714 0.375053 -0.216949
C40   C     C_R   0.981486 0.455340 0.333026 0.219519
C41   C     C_R   0.078008 0.445638 0.376083 0.061668
C42   C     C_R   0.107235 0.497140 0.451704 -0.052682
C43   C     C_R   0.146065 0.387228 0.346716 0.054353
C44   C     C_R   0.240969 0.388644 0.385632 0.205641
C45   C     C_3   0.401658 0.521374 0.924701 -0.027529
C46   C     C_R   0.204310 0.498234 0.486015 -0.006893
C47   C     C_3   0.557985 0.582936 0.967837 0.142221
C48   C     C_3   0.565734 0.573746 0.070690 0.191781
C49   C     C_1   0.496232 0.499913 0.249136 -0.107046
C50   C     C_3   0.506267 0.504591 0.918687 0.080690
H1    H     H_    0.368766 0.463297 0.897596 0.168463
H2    H     H_    0.619137 0.397064 0.102125 0.192363
H3    H     H_    0.462264 0.204220 0.496710 0.177515
H4    H     H_    0.740026 0.953326 0.685364 0.167805
H5    H     H_    0.207178 0.911400 0.454800 0.196366
H6    H     H_    0.541423 0.785740 0.554528 0.162523
H7    H     H_    0.624928 0.856435 0.650787 0.153548
H8    H     H_    0.230778 0.539896 0.539792 0.153188
H9    H     H_    0.123725 0.633584 0.569496 0.174282
H10   H     H_    0.843501 0.509411 0.339795 0.182897
N1    N     N_R   0.731690 0.552720 0.548990 -0.133187
N2    N     N_R   0.268300 0.447240 0.450950 -0.114406
O1    O     O_R   0.383120 0.605620 0.475300 -0.582884
O2    O     O_R   0.531890 0.639510 0.506740 -0.630207
O3    O     O_R   0.425580 0.483050 0.607130 -0.584403
O4    O     O_R   0.574360 0.516930 0.638570 -0.651708
O5    O     O_R   0.468110 0.360490 0.493260 -0.630312
O6    O     O_R   0.616880 0.394380 0.524700 -0.558681
O7    O     O_R   0.425640 0.483070 0.361430 -0.620998
O8    O     O_R   0.574420 0.516950 0.392870 -0.583263
Zn1   Zn    Zn3+2 0.400660 0.477370 0.479010 0.982357
Zn2   Zn    Zn3+2 0.599340 0.522630 0.520990 0.971902
N3    N     N_3   0.358443 0.622194 0.039200 -0.365294
H11   H     H_    0.356529 0.626544 0.105046 0.219086
H12   H     H_    0.288071 0.635736 0.005113 0.248138
I1    I     I_    0.297202 0.448968 0.044915 -0.295382
I2    I     I_    0.170841 0.088804 0.500747 -0.265703
N4    N     N_3   0.756532 0.274554 0.611947 -0.398572
H13   H     H_    0.812645 0.245329 0.587362 0.235872
H14   H     H_    0.781284 0.281892 0.679598 0.205404
I3    I     I_    0.201895 0.725479 0.394106 -0.306333
I4    I     I_    0.304806 0.618671 0.831310 -0.291155
I5    I     I_    0.342643 0.217701 0.611620 -0.292254
N5    N     N_3   0.810567 0.098472 0.678018 -0.451848
H15   H     H_    0.836663 0.043728 0.645301 0.218724
H16   H     H_    0.813552 0.078896 0.741997 0.207064
I6    I     I_    0.015175 0.777832 0.644703 -0.238724
N6    N     N_3   0.307613 0.325456 0.356568 -0.456594
H17   H     H_    0.354299 0.357285 0.334652 0.247164
H18   H     H_    0.342514 0.282307 0.408726 0.208601
I7    I     I_    0.922511 0.416526 0.202280 -0.296913
I8    I     I_    0.890455 0.685176 0.768729 -0.267923
N7    N     N_3   0.700061 0.633051 0.677266 -0.439301
H19   H     H_    0.632445 0.660221 0.644202 0.221318
H20   H     H_    0.702585 0.578034 0.716680 0.222717
I9    I     I_    0.772327 0.398316 0.433505 -0.296198
N8    N     N_3   0.651683 0.577792 0.951283 -0.468847
H21   H     H_    0.645932 0.584559 0.884158 0.186893
H22   H     H_    0.682723 0.631974 0.979758 0.207717
N9    N     N_3   0.119990 0.322116 0.281699 -0.395519
H23   H     H_    0.147396 0.258738 0.309495 0.229321
H24   H     H_    0.149666 0.330856 0.229679 0.236342
N10   N     N_3   0.503157 0.669736 0.933418 -0.378306
H25   H     H_    0.541218 0.720929 0.957754 0.217512
H26   H     H_    0.495128 0.673342 0.865640 0.200144
I10   I     I_    0.535087 0.702118 0.133871 -0.353616
N11   N     N_3   0.663515 0.540834 0.118160 -0.465871
H27   H     H_    0.667197 0.528456 0.184067 0.210612
H28   H     H_    0.704744 0.590575 0.119539 0.228464
N12   N     N_3   0.505337 0.339141 0.911530 -0.414519
H29   H     H_    0.443031 0.333774 0.927800 0.225442
H30   H     H_    0.547608 0.277083 0.926635 0.244900
N13   N     N_3   0.652658 0.387692 0.959303 -0.426539
H31   H     H_    0.660415 0.397768 0.896323 0.212216
H32   H     H_    0.695980 0.424511 0.003509 0.244221
I11   I     I_    0.509595 0.291461 0.109532 -0.300114

loop_
_geom_bond_atom_site_label_1
_geom_bond_atom_site_label_2
_ccdc_geom_bond_type
C10   C27   A    
C14   H6    S    
C24   C25   A    
N7    H19   S    
C29   C33   A    
N11   H28   S    
C41   C42   A    
C31   N1    A    
C36   C42   A    
C19   C20   A    
C9    C14   A    
C27   N4    S    
N8    H21   S    
C2    I1    S    
C7    C8    T    
C22   H4    S    
C25   C28   A    
C26   C27   A    
C37   C38   A    
C20   I2    S    
C4    H2    S    
C16   C20   A    
N5    H16   S    
C30   N7    S    
C42   C46   A    
N4    H14   S    
C48   N11   S    
C5    N12   S    
C45   H1    S    
C15   C16   A    
C13   I3    S    
C3    C48   S    
C18   C19   A    
N3    H11   S    
C23   O5    A    
O7    Zn1   S    
C9    C13   A    
N12   H29   S    
O4    Zn2   S    
C45   I4    S    
C47   C48   S    
N11   H27   S    
C34   O8    A    
O6    Zn2   S    
C3    C6    S    
N7    H20   S    
C21   C22   A    
C46   H8    S    
C41   C43   A    
C18   C25   A    
C19   I5    S    
C1    O1    A    
N8    H22   S    
C47   C50   S    
C2    C45   S    
C48   I10   S    
C47   N10   S    
C32   C35   A    
C1    C9    S    
C43   N9    S    
C39   C40   A    
N4    H13   S    
C44   N2    A    
O3    Zn1   S    
C12   O4    A    
C17   C21   A    
C35   C36   A    
C23   O6    A    
C35   C39   A    
C43   C44   A    
C21   H7    S    
C29   C30   A    
C11   C16   A    
C31   C32   A    
C8    C12   S    
N9    H24   S    
C17   C18   A    
N10   H26   S    
N5    H15   S    
C34   O7    A    
C37   H9    S    
C2    N3    S    
N1    Zn2   S    
C40   C41   A    
C46   N2    A    
C22   C24   A    
C5    C50   S    
N3    H12   S    
C3    C4    S    
C1    O2    A    
C11   H5    S    
N13   H31   S    
C10   C28   A    
C15   C17   A    
C36   C37   A    
C34   C49   S    
C26   N5    S    
C5    N13   S    
C4    I11   S    
C24   C26   A    
C7    C50   S    
N6    H18   S    
C4    C5    S    
C28   H3    S    
C10   C23   S    
C12   O3    A    
C33   C38   A    
C47   N8    S    
C38   I6    S    
C32   C33   A    
C2    C3    S    
C11   C13   A    
C45   C50   S    
C39   H10   S    
N9    H23   S    
N2    Zn1   S    
O5    Zn1   S    
O2    Zn2   S    
C40   I7    S    
N12   H30   S    
N6    H17   S    
C30   N1    A    
N10   H25   S    
C14   C15   A    
O8    Zn2   S    
C44   N6    S    
O1    Zn1   S    
C29   I8    S    
C6    C49   T    
C31   I9    S    
N13   H32   S    
