data_str_m3_o20_o24_f0_nbo.sym.160
_audit_creation_date              2013-03-05T16:01:31-0500
_audit_creation_method            fapswitch 2.2
_symmetry_space_group_name_H-M    P1
_symmetry_Int_Tables_number       1
_space_group_crystal_system       monoclinic
_cell_length_a                    21.401804
_cell_length_b                    29.190562
_cell_length_c                    29.189749
_cell_angle_alpha                 90.0
_cell_angle_beta                  89.998738
_cell_angle_gamma                 90.0
_cell_volume                      18235.7319293

loop_
_atom_site_label
_atom_site_type_symbol
_atom_site_description
_atom_site_fract_x
_atom_site_fract_y
_atom_site_fract_z
_atom_type_partial_charge
O1    O     O_R   0.000000 0.964340 0.063140 -0.598761
O2    O     O_R   0.000000 0.964340 0.936860 -0.598766
O3    O     O_R   0.500000 0.464340 0.563140 -0.598766
O4    O     O_R   0.500000 0.464340 0.436860 -0.598761
O5    O     O_R   0.000000 0.035640 0.063120 -0.602550
O6    O     O_R   0.000000 0.035640 0.936880 -0.602555
O7    O     O_R   0.500000 0.535640 0.563120 -0.602555
O8    O     O_R   0.500000 0.535640 0.436880 -0.602550
C1    C     C_R   1.000000 0.999996 0.086741 0.902856
C2    C     C_R   0.000000 0.999996 0.913259 0.902856
C3    C     C_R   0.500000 0.499996 0.586741 0.902857
C4    C     C_R   0.500000 0.499996 0.413259 0.902856
O9    O     O_R   0.093030 0.964340 0.000000 -0.617918
O10   O     O_R   0.906970 0.964340 0.000000 -0.617918
O11   O     O_R   0.593030 0.464340 0.500000 -0.617918
O12   O     O_R   0.406970 0.464340 0.500000 -0.617918
O13   O     O_R   0.093040 0.035640 0.000000 -0.612557
O14   O     O_R   0.906960 0.035640 0.000000 -0.612558
O15   O     O_R   0.593040 0.535640 0.500000 -0.612557
O16   O     O_R   0.406960 0.535640 0.500000 -0.612558
C5    C     C_R   0.122714 0.999951 0.000002 1.003686
C6    C     C_R   0.877286 0.999951 0.999997 1.003686
C7    C     C_R   0.622714 0.499951 0.500000 1.003687
C8    C     C_R   0.377285 0.499951 0.500000 1.003686
Zn1   Zn    Zn3+2 1.000000 0.952380 0.000000 1.002767
Zn2   Zn    Zn3+2 0.500000 0.452380 0.500000 1.002767
Zn3   Zn    Zn3+2 1.000000 0.047600 0.000000 1.007587
Zn4   Zn    Zn3+2 0.500000 0.547600 0.500000 1.007587
C9    C     C_3   0.229270 0.021603 0.037946 -0.270380
C10   C     C_3   0.770730 0.021633 0.962071 -0.270396
C11   C     C_3   0.770730 0.021298 0.038113 -0.270234
C12   C     C_3   0.229270 0.021328 0.961904 -0.270249
C13   C     C_3   0.729269 0.521481 0.538014 -0.270323
C14   C     C_3   0.270731 0.521451 0.461970 -0.270308
C15   C     C_3   0.270728 0.521480 0.538012 -0.270321
C16   C     C_3   0.729271 0.521450 0.461971 -0.270306
C17   C     C_3   0.270422 0.042273 0.999848 0.589236
C18   C     C_3   0.729578 0.042273 0.000185 0.589237
C19   C     C_3   0.770422 0.542273 0.499984 0.589237
C20   C     C_3   0.229578 0.542273 0.499983 0.589237
H1    H     H_    0.210973 0.039574 0.068663 0.182267
H2    H     H_    0.789026 0.039629 0.931368 0.182279
H3    H     H_    0.789028 0.039021 0.068973 0.182142
H4    H     H_    0.210973 0.039076 0.931058 0.182153
H5    H     H_    0.710971 0.539353 0.568787 0.182216
H6    H     H_    0.289030 0.539299 0.431182 0.182204
H7    H     H_    0.289024 0.539352 0.568787 0.182216
H8    H     H_    0.710975 0.539297 0.431182 0.182205
C21   C     C_3   0.310631 0.999137 0.000004 -0.349754
C22   C     C_3   0.689369 0.999137 0.999995 -0.349755
C23   C     C_3   0.810631 0.499137 0.500001 -0.349750
C24   C     C_3   0.189369 0.499137 0.499999 -0.349751
C25   C     C_3   0.269818 0.977987 0.037286 0.582672
C26   C     C_3   0.730182 0.978016 0.962696 0.582672
C27   C     C_3   0.730181 0.977687 0.037103 0.582666
C28   C     C_3   0.269819 0.977716 0.962879 0.582666
C29   C     C_3   0.769817 0.477867 0.537214 0.582669
C30   C     C_3   0.230183 0.477837 0.462804 0.582669
C31   C     C_3   0.230180 0.477866 0.537211 0.582668
C32   C     C_3   0.769820 0.477836 0.462807 0.582667
C33   C     C_3   0.228810 0.955630 0.000163 -0.280780
C34   C     C_3   0.771189 0.955630 0.999801 -0.280781
C35   C     C_3   0.728810 0.455630 0.500019 -0.280780
C36   C     C_3   0.271189 0.455630 0.500016 -0.280781
C37   C     C_3   0.189417 0.999726 0.000004 -0.272461
C38   C     C_3   0.810583 0.999726 0.999995 -0.272460
C39   C     C_3   0.689417 0.499726 0.500001 -0.272462
C40   C     C_3   0.310583 0.499726 0.500000 -0.272462
H9    H     H_    0.210446 0.920060 0.000293 0.195368
H10   H     H_    0.789554 0.920060 0.999643 0.195368
H11   H     H_    0.710446 0.420060 0.500034 0.195368
H12   H     H_    0.289554 0.420060 0.500030 0.195369
C41   C     C_1   0.000000 0.000007 0.137411 -0.192970
C42   C     C_1   1.000000 0.000007 0.862589 -0.192964
C43   C     C_1   0.500000 0.500007 0.637411 -0.192965
C44   C     C_1   0.500000 0.500007 0.362589 -0.192969
C45   C     C_1   0.000001 0.000010 0.179610 0.023831
C46   C     C_1   0.999999 0.000010 0.820390 0.023833
C47   C     C_1   0.500001 0.500010 0.679610 0.023833
C48   C     C_1   0.499999 0.500009 0.320390 0.023831
C49   C     C_1   0.000001 0.000008 0.229432 0.026485
C50   C     C_1   0.999999 0.000008 0.770568 0.026486
C51   C     C_1   0.500001 0.500008 0.729432 0.026486
C52   C     C_1   0.499999 0.500008 0.270568 0.026485
C53   C     C_1   0.000002 0.000005 0.271630 0.023336
C54   C     C_1   0.999998 0.000005 0.728370 0.023336
C55   C     C_1   0.500002 0.500005 0.771630 0.023336
C56   C     C_1   0.499998 0.500004 0.228370 0.023336
C57   C     C_1   0.000002 0.999999 0.321453 0.018399
C58   C     C_1   0.999998 0.999999 0.678547 0.018398
C59   C     C_1   0.500002 0.499999 0.821453 0.018398
C60   C     C_1   0.499998 0.499999 0.178546 0.018399
C61   C     C_1   0.000002 0.999995 0.363653 -0.186430
C62   C     C_1   0.999998 0.999995 0.636347 -0.186431
C63   C     C_1   0.500002 0.499995 0.863653 -0.186431
C64   C     C_1   0.499998 0.499995 0.136347 -0.186430
O17   O     O_R   0.500000 0.063090 0.964350 -0.603550
O18   O     O_R   0.500000 0.063090 0.035650 -0.603533
O19   O     O_R   1.000000 0.563090 0.464350 -0.603533
O20   O     O_R   1.000000 0.563090 0.535650 -0.603550
C65   C     C_R   0.500000 0.086704 0.000000 0.933692
C66   C     C_R   0.000000 0.586704 0.500000 0.933693
O21   O     O_R   0.406990 0.999940 0.964350 -0.588208
O22   O     O_R   0.593010 0.999940 0.035650 -0.588214
O23   O     O_R   0.593010 0.999940 0.964350 -0.588173
O24   O     O_R   0.406990 0.999940 0.035650 -0.588178
O25   O     O_R   0.906990 0.499940 0.464350 -0.588194
O26   O     O_R   0.093010 0.499940 0.535650 -0.588188
O27   O     O_R   0.093010 0.499940 0.464350 -0.588199
O28   O     O_R   0.906990 0.499940 0.535650 -0.588192
C67   C     C_R   0.377335 0.998979 0.000001 1.022892
C68   C     C_R   0.622665 0.998979 0.999999 1.022892
C69   C     C_R   0.877335 0.498979 0.500000 1.022892
C70   C     C_R   0.122665 0.498979 0.500000 1.022892
Zn5   Zn    Zn3+2 0.500000 0.999950 0.952390 1.084056
Zn6   Zn    Zn3+2 0.500000 0.999950 0.047610 1.084055
Zn7   Zn    Zn3+2 0.000000 0.499950 0.452390 1.084055
Zn8   Zn    Zn3+2 1.000000 0.499950 0.547610 1.084056
O29   O     O_R   0.500000 0.936790 0.964340 -0.595982
O30   O     O_R   0.500000 0.936790 0.035660 -0.595967
O31   O     O_R   0.000000 0.436790 0.464340 -0.595967
O32   O     O_R   0.000000 0.436790 0.535660 -0.595983
C71   C     C_R   0.500000 0.913186 0.000000 0.908091
C72   C     C_R   0.000000 0.413186 0.500000 0.908090
O33   O     O_R   0.052540 0.063140 0.500000 -0.589193
O34   O     O_R   0.947460 0.063140 0.500000 -0.589193
O35   O     O_R   0.552540 0.563140 0.000000 -0.589193
O36   O     O_R   0.447460 0.563140 0.000000 -0.589193
C73   C     C_R   0.000000 0.085649 0.500000 0.874944
C74   C     C_R   0.500000 0.585649 0.000000 0.874944
O37   O     O_R   0.052540 0.999990 0.436840 -0.588944
O38   O     O_R   0.947460 0.999990 0.563160 -0.588944
O39   O     O_R   0.947460 0.999990 0.436840 -0.588949
O40   O     O_R   0.052540 0.999990 0.563160 -0.588949
O41   O     O_R   0.552540 0.499990 0.936840 -0.588949
O42   O     O_R   0.447460 0.499990 0.063160 -0.588949
O43   O     O_R   0.447460 0.499990 0.936840 -0.588944
O44   O     O_R   0.552540 0.499990 0.063160 -0.588944
C75   C     C_R   0.000001 0.999991 0.414327 0.875136
C76   C     C_R   0.999999 0.999991 0.585673 0.875135
C77   C     C_R   0.500001 0.499991 0.914327 0.875135
C78   C     C_R   0.499999 0.499991 0.085673 0.875136
Zn9   Zn    Zn3+2 0.070140 0.999990 0.500000 0.997598
Zn10  Zn    Zn3+2 0.929860 0.999990 0.500000 0.997598
Zn11  Zn    Zn3+2 0.570140 0.499990 0.000000 0.997598
Zn12  Zn    Zn3+2 0.429860 0.499990 0.000000 0.997598
O45   O     O_R   0.052520 0.936840 0.500000 -0.588664
O46   O     O_R   0.947480 0.936840 0.500000 -0.588664
O47   O     O_R   0.552520 0.436840 0.000000 -0.588664
O48   O     O_R   0.447480 0.436840 0.000000 -0.588664
C79   C     C_R   0.000000 0.914319 0.500000 0.875405
C80   C     C_R   0.500000 0.414319 0.000000 0.875405
C81   C     C_1   0.500000 0.137378 0.000000 -0.143395
C82   C     C_1   0.000000 0.637378 0.500000 -0.143395
C83   C     C_1   0.500000 0.179579 0.000000 0.039969
C84   C     C_1   1.000000 0.679579 0.500000 0.039969
C85   C     C_1   0.500000 0.229407 0.000000 0.033778
C86   C     C_1   0.000000 0.729407 0.500000 0.033778
C87   C     C_1   1.000000 0.771608 0.500000 0.027511
C88   C     C_1   0.500000 0.271608 0.000000 0.027511
C89   C     C_1   1.000000 0.821437 0.500000 0.020074
C90   C     C_1   0.500000 0.321437 0.000000 0.020074
C91   C     C_1   1.000000 0.863639 0.500000 -0.185642
C92   C     C_1   0.500000 0.363639 0.000000 -0.185642
C93   C     C_1   0.500000 0.862525 0.000000 -0.159894
C94   C     C_1   0.000000 0.362525 0.500000 -0.159895
C95   C     C_1   0.500000 0.820332 0.000000 0.030957
C96   C     C_1   0.000000 0.320332 0.500000 0.030957
C97   C     C_1   0.500000 0.770517 0.000000 0.029403
C98   C     C_1   0.000000 0.270517 0.500000 0.029403
C99   C     C_1   0.000000 0.228324 0.500000 0.024849
C100  C     C_1   0.500000 0.728324 0.000000 0.024849
C101  C     C_1   0.000000 0.178509 0.500000 0.018184
C102  C     C_1   0.500000 0.678509 0.000000 0.018184
C103  C     C_1   0.000000 0.136314 0.500000 -0.186866
C104  C     C_1   0.500000 0.636314 0.000000 -0.186866
F1    F     F_    0.293970 0.086379 0.999688 -0.637273
F2    F     F_    0.706030 0.086379 0.000380 -0.637272
F3    F     F_    0.793970 0.586379 0.499966 -0.637274
F4    F     F_    0.206030 0.586379 0.499966 -0.637274
F5    F     F_    0.292446 0.955802 0.075709 -0.622252
F6    F     F_    0.707554 0.955862 0.924255 -0.622241
F7    F     F_    0.707546 0.955195 0.075347 -0.622362
F8    F     F_    0.292453 0.955255 0.924618 -0.622353
F9    F     F_    0.792447 0.455559 0.575566 -0.622299
F10   F     F_    0.207553 0.455499 0.424470 -0.622309
F11   F     F_    0.207548 0.455557 0.575562 -0.622297
F12   F     F_    0.792452 0.455497 0.424473 -0.622307

loop_
_geom_bond_atom_site_label_1
_geom_bond_atom_site_label_2
_geom_bond_distance
_ccdc_geom_bond_type
O38   Zn10  1.881715 S    
C11   C38   1.536853 S    
C19   C23   1.525132 S    
C27   F7    1.382701 S    
C18   F2    1.382623 S    
C55   C59   1.454327 S    
C83   C85   1.454493 S    
C13   H5    1.110151 S    
C51   C55   1.231755 T    
O46   C79   1.302156 A    
C48   C52   1.454303 S    
C15   H7    1.110149 S    
O28   Zn8   2.020971 S    
C16   C39   1.536847 S    
O27   Zn7   2.020969 S    
C95   C97   1.454113 S    
O18   C65   1.248202 A    
O7    C3    1.248189 A    
C99   C101  1.454137 S    
C10   C18   1.541551 S    
C31   C36   1.539585 S    
C23   C69   1.427591 S    
C11   H3    1.110156 S    
C32   C35   1.539583 S    
C14   C20   1.541527 S    
C36   C40   1.538715 S    
O21   C67   1.219218 A    
O40   C76   1.302397 A    
C30   F10   1.382696 S    
C98   C99   1.231637 T    
O44   Zn11  1.881699 S    
O26   C70   1.219205 A    
C27   C34   1.539583 S    
C60   C64   1.231796 T    
C62   C76   1.479158 S    
C34   H10   1.110216 S    
C15   C31   1.540938 S    
Zn8   O32   1.876386 S    
C7    C39   1.427575 S    
Zn7   O31   1.876386 S    
C6    C38   1.427575 S    
O31   C72   1.248288 A    
O42   C78   1.302398 A    
O40   Zn9   1.881699 S    
O22   Zn6   2.020953 S    
C25   C33   1.539598 S    
O25   C69   1.219208 A    
C56   C60   1.454327 S    
O41   Zn11  1.881718 S    
C26   F6    1.382704 S    
C31   F11   1.382696 S    
C14   H6    1.110151 S    
C45   C49   1.454303 S    
O17   Zn5   1.875864 S    
C63   C77   1.479158 S    
C66   C82   1.479223 S    
C29   F9    1.382694 S    
O30   C71   1.248285 A    
Zn10  O46   1.881560 S    
C21   C67   1.427591 S    
C9    H1    1.110154 S    
O11   C7    1.218270 A    
C96   C98   1.454113 S    
C93   C95   1.231634 T    
O5    Zn3   1.875239 S    
O1    Zn1   1.875816 S    
O9    Zn1   2.021387 S    
C1    C41   1.479045 S    
C22   C68   1.427591 S    
C89   C91   1.231921 T    
C64   C78   1.479158 S    
C100  C102  1.454137 S    
C49   C53   1.231755 T    
C58   C62   1.231796 T    
C90   C92   1.231921 T    
O24   C67   1.219197 A    
C101  C103  1.231678 T    
C30   C36   1.539587 S    
C35   C39   1.538713 S    
C34   C38   1.538718 S    
C20   F4    1.382617 S    
O13   Zn3   2.021596 S    
C81   C83   1.231868 T    
O26   Zn8   2.020953 S    
O43   Zn12  1.881702 S    
C94   C96   1.231634 T    
O1    C1    1.248165 A    
C54   C58   1.454327 S    
O47   C80   1.302154 A    
C14   C40   1.536849 S    
O22   C68   1.219223 A    
O37   C75   1.302398 A    
C53   C57   1.454327 S    
O11   Zn2   2.021387 S    
C28   F8    1.382698 S    
O34   C73   1.302345 A    
C74   C104  1.478957 S    
C20   C24   1.525130 S    
C26   C34   1.539598 S    
C16   C19   1.541527 S    
O13   C5    1.220096 A    
O7    Zn4   1.875239 S    
Zn6   O30   1.876386 S    
O24   Zn6   2.020971 S    
C19   F3    1.382615 S    
C9    C25   1.540923 S    
C88   C90   1.454522 S    
O15   C7    1.220096 A    
O5    C1    1.248189 A    
O21   Zn5   2.020956 S    
C61   C75   1.479158 S    
C24   C31   1.525886 S    
C25   F5    1.382702 S    
O19   Zn7   1.875864 S    
C10   C26   1.540920 S    
C46   C50   1.454303 S    
O18   Zn6   1.875863 S    
O6    Zn3   1.875242 S    
C33   C37   1.538717 S    
C65   C81   1.479223 S    
O8    C4    1.248189 A    
O17   C65   1.248202 A    
C87   C89   1.454522 S    
C12   H4    1.110154 S    
O9    C5    1.218270 A    
C13   C19   1.541529 S    
C12   C17   1.541517 S    
O15   Zn4   2.021596 S    
O28   C69   1.219207 A    
C17   C21   1.525134 S    
C10   C38   1.536855 S    
C24   C30   1.525882 S    
O27   C70   1.219209 A    
O35   Zn11  1.881477 S    
C23   C29   1.525883 S    
O23   C68   1.219192 A    
C35   H11   1.110212 S    
O39   C75   1.302397 A    
C85   C88   1.231877 T    
Zn5   O29   1.876386 S    
C4    C44   1.479045 S    
O44   C78   1.302397 A    
C86   C87   1.231877 T    
O8    Zn4   1.875242 S    
C97   C100  1.231637 T    
C72   C94   1.478838 S    
O4    C4    1.248165 A    
O32   C72   1.248285 A    
O2    C2    1.248165 A    
O16   Zn4   2.021598 S    
Zn9   O45   1.881560 S    
O37   Zn9   1.881718 S    
C13   C39   1.536849 S    
O20   C66   1.248202 A    
C33   H9    1.110215 S    
O43   C77   1.302397 A    
O39   Zn10  1.881702 S    
C13   C29   1.540936 S    
C5    C37   1.427575 S    
O14   C6    1.220096 A    
C82   C84   1.231868 T    
O23   Zn5   2.020969 S    
O3    Zn2   1.875816 S    
C10   H2    1.110155 S    
O14   Zn3   2.021598 S    
C44   C48   1.231758 T    
C29   C35   1.539585 S    
C80   C92   1.479363 S    
O12   Zn2   2.021389 S    
O36   C74   1.302345 A    
O6    C2    1.248189 A    
O4    Zn2   1.875819 S    
C9    C37   1.536853 S    
Zn12  O48   1.881560 S    
C18   C22   1.525135 S    
O29   C71   1.248288 A    
O38   C76   1.302398 A    
C21   C28   1.525874 S    
C17   F1    1.382622 S    
C79   C91   1.479363 S    
C22   C27   1.525874 S    
C11   C18   1.541516 S    
Zn11  O47   1.881560 S    
O10   C6    1.218270 A    
C84   C86   1.454493 S    
C15   C20   1.541529 S    
O35   C74   1.302343 A    
C22   C26   1.525902 S    
C50   C54   1.231755 T    
C47   C51   1.454303 S    
C2    C42   1.479045 S    
O36   Zn12  1.881477 S    
C52   C56   1.231755 T    
C24   C70   1.427591 S    
C15   C40   1.536850 S    
O33   Zn9   1.881477 S    
C21   C25   1.525898 S    
O45   C79   1.302154 A    
O34   Zn10  1.881477 S    
O25   Zn7   2.020956 S    
C16   H8    1.110151 S    
O2    Zn1   1.875819 S    
O48   C80   1.302156 A    
C32   F12   1.382698 S    
C36   H12   1.110209 S    
O10   Zn1   2.021389 S    
C57   C61   1.231796 T    
O16   C8    1.220096 A    
C102  C104  1.231678 T    
O3    C3    1.248165 A    
C8    C40   1.427575 S    
C59   C63   1.231796 T    
C71   C93   1.478838 S    
O33   C73   1.302343 A    
O41   C77   1.302398 A    
O19   C66   1.248202 A    
O20   Zn8   1.875863 S    
C41   C45   1.231758 T    
O12   C8    1.218270 A    
C42   C46   1.231758 T    
C9    C17   1.541547 S    
C14   C30   1.540941 S    
C16   C32   1.540938 S    
C28   C33   1.539580 S    
C73   C103  1.478957 S    
C3    C43   1.479045 S    
C23   C32   1.525881 S    
C11   C27   1.540965 S    
C43   C47   1.231758 T    
C12   C28   1.540962 S    
O42   Zn12  1.881715 S    
C12   C37   1.536852 S    
