data_str_m2_o15_o22_f0_nbo.sym.128
_audit_creation_date              2012-12-10T17:02:43-0500
_audit_creation_method            fapswitch 2.2
_symmetry_space_group_name_H-M    P1
_symmetry_Int_Tables_number       1
_space_group_crystal_system       triclinic
_cell_length_a                    18.835841
_cell_length_b                    19.26587
_cell_length_c                    18.850532
_cell_angle_alpha                 109.639835
_cell_angle_beta                  109.300849
_cell_angle_gamma                 109.890455
_cell_volume                      5238.52191252

loop_
_atom_site_label
_atom_site_type_symbol
_atom_type_description
_atom_site_fract_x
_atom_site_fract_y
_atom_site_fract_z
_atom_type_partial_charge
C1    C     C_R   0.379576 0.381617 0.498045 0.892230
C2    C     C_3   0.807232 0.498726 0.809086 0.024277
C3    C     C_3   0.819194 0.481122 0.726586 0.510391
C4    C     C_3   0.808353 0.585855 0.846341 -0.073464
C5    C     C_R   0.402988 0.381891 0.655541 -0.167855
C6    C     C_R   0.412269 0.390221 0.734687 -0.171906
C7    C     C_R   0.344170 0.334528 0.736486 0.452401
C8    C     C_R   0.268789 0.267480 0.658724 -0.220301
C9    C     C_R   0.259175 0.254746 0.576408 -0.004585
C10   C     C_R   0.324604 0.317043 0.575362 0.085187
C11   C     C_R   0.186291 0.182346 0.496279 -0.082012
C12   C     C_R   0.618675 0.500131 0.619668 0.834692
C13   C     C_R   0.175064 0.175904 0.414678 -0.021274
C14   C     C_R   0.233287 0.246075 0.414382 -0.042154
C15   C     C_R   0.310777 0.314249 0.495502 -0.116743
C16   C     C_R   0.107073 0.101830 0.331935 0.358250
C17   C     C_R   0.084270 0.104483 0.255678 -0.217201
C18   C     C_R   0.134379 0.174856 0.255285 0.336139
C19   C     C_R   0.211168 0.243722 0.331972 0.059563
C20   C     C_R   0.207287 0.459501 0.372131 0.148088
C21   C     C_R   0.126791 0.442419 0.365702 -0.249017
C22   C     C_R   0.073324 0.458715 0.313133 -0.122597
C23   C     C_R   0.617471 0.617916 0.498990 0.755000
C24   C     C_R   0.098163 0.490708 0.264354 0.376984
C25   C     C_R   0.170720 0.492038 0.253753 -0.046427
C26   C     C_R   0.230437 0.482261 0.313928 0.034110
C27   C     C_R   0.184485 0.500854 0.185567 -0.104099
C28   C     C_R   0.261024 0.506323 0.181866 0.067710
C29   C     C_R   0.327546 0.514367 0.252717 0.013837
C30   C     C_R   0.310465 0.497166 0.314540 -0.130853
C31   C     C_R   0.274964 0.503332 0.110307 0.108601
C32   C     C_R   0.358575 0.527144 0.120103 0.381875
C33   C     C_R   0.426358 0.547335 0.195921 -0.158649
C34   C     C_R   0.378617 0.497541 0.380936 0.842027
C35   C     C_R   0.410782 0.538418 0.259913 -0.239069
C36   C     C_R   0.580431 0.732316 0.451123 -0.159857
C37   C     C_R   0.562738 0.792326 0.437927 -0.145570
C38   C     C_R   0.629565 0.866568 0.456404 -0.161321
C39   C     C_R   0.714268 0.879925 0.483758 0.168731
C40   C     C_R   0.731586 0.812910 0.485884 0.068336
C41   C     C_R   0.664738 0.742425 0.477524 0.040219
C42   C     C_R   0.810916 0.812305 0.496294 -0.151365
C43   C     C_R   0.823555 0.745594 0.505755 -0.009199
C44   C     C_R   0.764347 0.689640 0.518368 -0.020354
C45   C     C_3   0.641237 0.434794 0.714735 0.154336
C46   C     C_R   0.683267 0.684367 0.498072 -0.117957
C47   C     C_R   0.892095 0.730410 0.502736 0.389212
C48   C     C_R   0.911416 0.677514 0.530922 -0.186992
C49   C     C_R   0.859431 0.631703 0.555073 0.156398
C50   C     C_R   0.785715 0.636850 0.547723 -0.151165
C51   C     C_R   0.999021 0.381811 0.878632 0.862811
C52   C     C_R   0.877337 0.500358 0.878760 0.801894
C53   C     C_R   0.002419 0.619007 0.120140 0.805531
C54   C     C_R   0.117075 0.500077 0.116708 0.904109
C55   C     C_R   0.999455 0.880472 0.381358 1.011376
C56   C     C_3   0.712855 0.428181 0.779721 -0.112181
C57   C     C_R   0.118971 0.117316 0.498685 0.857683
C58   C     C_R   0.995347 0.113286 0.618348 0.832396
C59   C     C_R   0.880350 0.880763 0.499081 0.944706
C60   C     C_R   0.068814 0.409730 0.755374 0.383457
C61   C     C_R   0.118699 0.425023 0.715702 -0.110457
C62   C     C_R   0.129382 0.361644 0.668009 -0.197604
C63   C     C_R   0.087536 0.281346 0.656769 -0.132477
C64   C     C_R   0.041826 0.264678 0.701258 0.036819
C65   C     C_R   0.038125 0.331780 0.758778 -0.010214
C66   C     C_R   0.000078 0.181437 0.687780 -0.102177
C67   C     C_3   0.740815 0.471300 0.653995 -0.390603
C68   C     C_R   0.973262 0.166806 0.746060 0.030222
C69   C     C_R   0.987377 0.238024 0.816725 -0.097440
C70   C     C_R   0.007597 0.316985 0.816515 -0.165475
C71   C     C_R   0.937888 0.085074 0.740619 0.134982
C72   C     C_R   0.915641 0.076001 0.801894 -0.310698
C73   C     C_R   0.940666 0.147166 0.876439 0.147012
C74   C     C_R   0.984053 0.228014 0.887506 0.429900
C75   C     C_R   0.166097 0.750380 0.299877 0.175646
C76   C     C_R   0.231112 0.799415 0.387648 0.198838
C77   C     C_R   0.230208 0.867266 0.442661 -0.235914
C78   C     C_3   0.747246 0.589821 0.770950 -0.485432
C79   C     C_R   0.163505 0.882862 0.410634 0.391228
C80   C     C_R   0.082470 0.816771 0.332228 -0.021093
C81   C     C_R   0.084491 0.750132 0.271796 -0.024907
C82   C     C_R   0.001141 0.814567 0.314296 -0.084979
C83   C     C_R   0.923095 0.749343 0.232771 0.013191
C84   C     C_R   0.930372 0.694735 0.166939 0.043272
C85   C     C_R   0.006623 0.688863 0.188131 -0.057783
C86   C     C_R   0.836803 0.734603 0.211999 0.403306
C87   C     C_R   0.768610 0.684943 0.125667 -0.117142
C88   C     C_R   0.780841 0.642637 0.059573 -0.214439
C89   C     C_3   0.685190 0.498857 0.688593 -0.041244
C90   C     C_R   0.859534 0.644778 0.079950 -0.151897
Cu1   Cu    Cu3+1 0.500360 0.438220 0.438540 1.019708
Cu2   Cu    Cu3+1 0.499640 0.561780 0.561460 0.947838
Cu3   Cu    Cu3+1 0.935530 0.438290 0.997340 1.071489
Cu4   Cu    Cu3+1 0.059130 0.561800 0.997250 1.067869
Cu5   Cu    Cu3+1 0.937870 0.000030 0.437890 1.048311
Cu6   Cu    Cu3+1 0.062130 0.000000 0.562130 1.074914
H1    H     H_    0.763312 0.509296 0.624897 0.190606
H2    H     H_    0.458778 0.427150 0.659011 0.174325
H3    H     H_    0.472183 0.441075 0.794762 0.164556
H4    H     H_    0.218531 0.227426 0.665455 0.174700
H5    H     H_    0.030204 0.048402 0.194237 0.211579
H6    H     H_    0.611319 0.461773 0.749797 0.100194
H7    H     H_    0.490751 0.565883 0.203643 0.198643
H8    H     H_    0.108747 0.422775 0.407644 0.155397
H9    H     H_    0.016073 0.454393 0.317326 0.186241
H10   H     H_    0.465662 0.550743 0.315079 0.161810
H11   H     H_    0.705941 0.442946 0.838782 0.141596
H12   H     H_    0.526830 0.678167 0.440878 0.140145
H13   H     H_    0.497801 0.783218 0.417678 0.164340
H14   H     H_    0.616337 0.916074 0.452507 0.146458
H15   H     H_    0.964051 0.667580 0.528457 0.175603
H16   H     H_    0.744827 0.598089 0.564154 0.140436
H17   H     H_    0.144457 0.484982 0.716344 0.177861
H18   H     H_    0.165518 0.373125 0.634889 0.151313
H19   H     H_    0.092879 0.232744 0.613359 0.114350
H20   H     H_    0.886483 0.013578 0.795705 0.162914
H21   H     H_    0.727285 0.603560 0.992952 0.148199
H22   H     H_    0.287711 0.915025 0.506059 0.181846
H23   H     H_    0.698749 0.403620 0.599604 0.217599
H24   H     H_    0.704087 0.675551 0.109958 0.187145
H25   H     H_    0.864158 0.606729 0.026501 0.131299
H26   H     H_    0.784533 0.633596 0.753860 0.209620
H27   H     H_    0.709427 0.616147 0.793059 0.186008
H28   H     H_    0.779355 0.585227 0.889030 0.115647
O1    O     O_R   0.410140 0.357660 0.448100 -0.529844
O2    O     O_R   0.049980 0.462000 0.907580 -0.536457
O3    O     O_R   0.854480 0.447890 0.906670 -0.595380
O4    O     O_R   0.958860 0.552200 0.906600 -0.481175
O5    O     O_R   0.944670 0.538090 0.087010 -0.531061
O6    O     O_R   0.049050 0.642400 0.086940 -0.616909
O7    O     O_R   0.035800 0.447890 0.088000 -0.506300
O8    O     O_R   0.140170 0.552200 0.087920 -0.608858
O9    O     O_R   0.948030 0.909890 0.357850 -0.528420
O10   O     O_R   0.052970 0.909860 0.462770 -0.534274
O11   O     O_R   0.037700 0.090200 0.447550 -0.582249
O12   O     O_R   0.409530 0.462000 0.551910 -0.609574
O13   O     O_R   0.142640 0.090170 0.552470 -0.546132
O14   O     O_R   0.947030 0.090160 0.537260 -0.602241
O15   O     O_R   0.051970 0.090130 0.642170 -0.578367
O16   O     O_R   0.857360 0.909860 0.447560 -0.532589
O17   O     O_R   0.962300 0.909830 0.552480 -0.580750
O18   O     O_R   0.590960 0.447830 0.538760 -0.560616
O19   O     O_R   0.590350 0.552170 0.642570 -0.610341
O20   O     O_R   0.590470 0.538000 0.448090 -0.585228
O21   O     O_R   0.589860 0.642340 0.551900 -0.588499
O22   O     O_R   0.409650 0.447830 0.357430 -0.580096
O23   O     O_R   0.409040 0.552170 0.461240 -0.578076
O24   O     O_R   0.945600 0.357690 0.907660 -0.566344
Cl1   Cl    Cl    0.550988 0.332904 0.621851 -0.633936
N1    N     N_3   0.896468 0.662247 0.901012 -0.508767
H29   H     H_    0.896598 0.708621 0.950057 0.218394
H30   H     H_    0.913466 0.690159 0.865978 0.286751
Cl2   Cl    Cl    0.917048 0.568137 0.750492 -0.544443
Cl3   Cl    Cl    0.103491 0.171149 0.154275 -0.598906
Cl4   Cl    Cl    0.353458 0.347807 0.836552 -0.525283
Cl5   Cl    Cl    0.061546 0.997257 0.310859 -0.601048
N2    N     N_3   0.264870 0.309833 0.323647 -0.536914
H31   H     H_    0.287093 0.283499 0.283738 0.278170
H32   H     H_    0.226546 0.329604 0.291467 0.258872
N3    N     N_3   0.263626 0.453926 0.439596 -0.554114
H33   H     H_    0.228044 0.396581 0.436020 0.206785
H34   H     H_    0.281160 0.503076 0.499192 0.236076
Cl6   Cl    Cl    0.049474 0.549263 0.243963 -0.680554
N4    N     N_3   0.204257 0.468022 0.025139 -0.520734
H35   H     H_    0.200981 0.414379 0.981858 0.274216
H36   H     H_    0.217870 0.513258 0.005357 0.270641
Cl7   Cl    Cl    0.379479 0.529064 0.036086 -0.552518
N5    N     N_3   0.876196 0.573669 0.579540 -0.522405
H37   H     H_    0.935977 0.580453 0.586425 0.251518
H38   H     H_    0.827873 0.511564 0.528368 0.218184
N6    N     N_3   0.781590 0.964813 0.517165 -0.574578
H39   H     H_    0.766170 0.980576 0.468340 0.242946
H40   H     H_    0.780826 0.007063 0.568776 0.211920
Cl8   Cl    Cl    0.939032 0.750925 0.441167 -0.605268
N7    N     N_3   0.929440 0.138099 0.945019 -0.482534
H41   H     H_    0.961335 0.106823 0.963430 0.275151
H42   H     H_    0.862797 0.098817 0.920000 0.212878
Cl9   Cl    Cl    0.032924 0.483090 0.774713 -0.580531
N8    N     N_3   0.701372 0.341937 0.746514 -0.525972
H43   H     H_    0.686383 0.314775 0.681692 0.295417
H44   H     H_    0.648640 0.302543 0.748484 0.268545
N9    N     N_3   0.928698 0.011166 0.677278 -0.573440
H45   H     H_    0.867473 0.959138 0.651984 0.207808
H46   H     H_    0.974777 0.998201 0.710033 0.243774
Cl10  Cl    Cl    0.058793 0.309309 0.996184 -0.576349
N10   N     N_3   0.192257 0.711829 0.242827 -0.548216
H47   H     H_    0.152583 0.646856 0.211552 0.247586
H48   H     H_    0.192208 0.736781 0.201512 0.257447
N11   N     N_3   0.305235 0.788241 0.416073 -0.548172
H49   H     H_    0.349576 0.831901 0.482428 0.211144
H50   H     H_    0.282519 0.727429 0.409268 0.235162
Cl11  Cl    Cl    0.200491 0.992653 0.455724 -0.544912
Cl12  Cl    Cl    0.800449 0.754875 0.287216 -0.584357
N12   N     N_3   0.822406 0.402139 0.692568 -0.605885
H51   H     H_    0.869337 0.402499 0.741541 0.250712
H52   H     H_    0.839346 0.397246 0.644259 0.268129

loop_
_geom_bond_atom_site_label_1
_geom_bond_atom_site_label_2
_ccdc_geom_bond_type
C58   O15   A    
C8    C9    A    
C66   C68   A    
N6    H39   S    
Cu3   Cu4   S    
C67   H23   S    
C36   H12   S    
C34   O22   A    
C73   C74   A    
N12   H52   S    
Cu5   Cu6   S    
Cu5   O9    S    
C87   C88   A    
C49   C50   A    
Cu6   O15   S    
C52   O4    A    
C27   C54   S    
C7    C8    A    
N7    H42   S    
C54   O7    A    
C23   O21   A    
Cu5   O16   S    
Cu4   O6    S    
C51   O24   A    
N4    H35   S    
C1    O1    A    
C62   H18   S    
C10   C15   A    
C86   Cl12  S    
C5    C6    A    
C5    H2    S    
C60   Cl9   S    
C65   C70   A    
C67   C89   S    
C4    H28   S    
Cu3   O24   S    
C18   C19   A    
N11   H50   S    
C3    Cl2   S    
C17   H5    S    
N9    H45   S    
C39   N6    S    
C76   N11   S    
Cu6   O17   S    
C21   H8    S    
C58   C66   S    
N2    H31   S    
C31   C32   A    
C45   C56   S    
C16   C17   A    
C16   Cl5   S    
C41   C46   A    
C1    C15   S    
C51   C70   S    
C38   H14   S    
C1    O12   A    
C45   C89   S    
C9    C10   A    
C37   H13   S    
C61   C62   A    
C18   Cl3   S    
C72   C73   A    
C74   Cl10  S    
C63   H19   S    
C58   O14   A    
C7    Cl4   S    
C40   C42   A    
N12   H51   S    
N2    H32   S    
C23   C46   S    
C13   C14   A    
Cu2   O23   S    
C71   N9    S    
C36   C41   A    
Cu2   O12   S    
C84   C90   A    
Cu3   O5    S    
Cu5   O11   S    
C52   O3    A    
C44   C46   A    
C76   C77   A    
Cu4   O2    S    
C78   C89   S    
Cu3   O7    S    
C3    N12   S    
C30   C34   S    
C19   N2    S    
C47   C48   A    
N5    H37   S    
C12   C89   S    
C24   C25   A    
C49   N5    S    
C80   C82   A    
C77   H22   S    
C39   C40   A    
C86   C87   A    
C68   C69   A    
Cu6   O10   S    
C25   C26   A    
C55   O9    A    
Cu4   O8    S    
C79   C80   A    
C60   C61   A    
N3    H34   S    
C73   N7    S    
C2    C4    S    
C75   C76   A    
Cu3   O3    S    
C56   H11   S    
C4    C78   S    
C37   C38   A    
N6    H40   S    
C34   O23   A    
C83   C84   A    
C83   C86   A    
C62   C63   A    
C50   H16   S    
C17   C18   A    
C77   C79   A    
C57   O13   A    
C69   C74   A    
C84   C85   A    
C55   C82   S    
C78   H27   S    
C9    C11   A    
C2    C52   S    
N10   H47   S    
C40   C41   A    
C88   C90   A    
C60   C65   A    
C26   C30   A    
Cu4   O4    S    
C79   Cl11  S    
C43   C44   A    
C61   H17   S    
C90   H25   S    
C22   C24   A    
C23   O20   A    
C32   Cl7   S    
C75   N10   S    
C53   O5    A    
C42   C43   A    
N10   H48   S    
C55   O10   A    
Cu6   O13   S    
C4    N1    S    
Cu2   O19   S    
Cu1   O20   S    
C44   C50   A    
N11   H49   S    
C72   H20   S    
C31   N4    S    
C28   C29   A    
Cu5   O14   S    
Cu1   O1    S    
Cu2   O21   S    
C33   H7    S    
C51   O2    A    
C14   C19   A    
C28   C31   A    
C3    C67   S    
C80   C81   A    
C42   C59   S    
C53   C85   S    
C6    C7    A    
C75   C81   A    
N8    H43   S    
C25   C27   A    
C22   H9    S    
C54   O8    A    
C29   C35   A    
N1    H29   S    
C12   O19   A    
C6    H3    S    
Cu1   O18   S    
N4    H36   S    
C2    C3    S    
C8    H4    S    
C45   Cl1   S    
C87   H24   S    
N7    H41   S    
C11   C57   S    
C32   C33   A    
C11   C13   A    
C38   C39   A    
C20   C26   A    
C59   O16   A    
C68   C71   A    
C48   C49   A    
C64   C65   A    
N5    H38   S    
C33   C35   A    
C12   O18   A    
N1    H30   S    
C69   C70   A    
C78   H26   S    
N3    H33   S    
N9    H46   S    
C47   Cl8   S    
C45   H6    S    
C67   H1    S    
C29   C30   A    
C63   C64   A    
C24   Cl6   S    
C5    C10   A    
C48   H15   S    
C71   C72   A    
C20   C21   A    
C59   O17   A    
C36   C37   A    
C82   C83   A    
C20   N3    S    
C13   C16   A    
C27   C28   A    
C35   H10   S    
C14   C15   A    
C57   O11   A    
C2    C56   S    
C53   O6    A    
C88   H21   S    
C21   C22   A    
C43   C47   A    
Cu1   O22   S    
C81   C85   A    
Cu1   Cu2   S    
C64   C66   A    
N8    H44   S    
C56   N8    S    
