data_str_m2_o3_o13_f0_pcu.sym.51
_audit_creation_date              2012-10-26T20:30:06-0400
_audit_creation_method            fapswitch 2.2
_symmetry_space_group_name_H-M    P1
_symmetry_Int_Tables_number       1
_space_group_crystal_system       triclinic
_cell_length_a                    13.007599
_cell_length_b                    19.456862
_cell_length_c                    18.150163
_cell_angle_alpha                 90.439152
_cell_angle_beta                  96.006165
_cell_angle_gamma                 90.18214
_cell_volume                      4568.18482399

loop_
_atom_site_label
_atom_site_type_symbol
_atom_type_description
_atom_site_fract_x
_atom_site_fract_y
_atom_site_fract_z
_atom_type_partial_charge
C1    C     C_R   0.502166 0.367596 0.499805 0.572379
C2    C     C_R   0.504415 0.292112 0.499192 0.024307
C3    C     C_R   0.523569 0.964574 0.566289 -0.109687
C4    C     C_R   0.476428 0.035425 0.433713 -0.109686
C5    C     C_R   0.524307 0.036137 0.566481 -0.104725
C6    C     C_R   0.475690 0.963862 0.433521 -0.104725
C7    C     C_R   0.500784 0.072097 0.500188 0.031793
C8    C     C_R   0.499214 0.927902 0.499814 0.031791
C9    C     C_R   0.432537 0.458849 0.715578 0.055957
C10   C     C_R   0.567456 0.541154 0.284421 0.055955
C11   C     C_R   0.431181 0.458149 0.792803 -0.139119
C12   C     C_R   0.497833 0.632404 0.500195 0.572382
C13   C     C_R   0.568812 0.541855 0.207196 -0.139122
C14   C     C_R   0.499908 0.500148 0.838427 0.020768
C15   C     C_R   0.500091 0.499853 0.161573 0.020766
C16   C     C_R   0.300331 0.499938 0.486305 0.553362
C17   C     C_R   0.699669 0.500062 0.513695 0.553359
C18   C     C_R   0.568630 0.542123 0.803749 -0.129396
C19   C     C_R   0.431374 0.457875 0.196251 -0.129394
C20   C     C_R   0.567345 0.541296 0.726299 0.076175
C21   C     C_R   0.432660 0.458701 0.273701 0.076180
C22   C     C_R   0.592762 0.506891 0.968293 -0.109270
C23   C     C_R   0.497626 0.852247 0.499819 -0.011572
C24   C     C_R   0.407235 0.493112 0.031707 -0.109269
C25   C     C_R   0.592812 0.506776 0.045691 -0.104733
C26   C     C_R   0.407185 0.493226 0.954309 -0.104732
C27   C     C_R   0.500049 0.499887 0.078725 0.034847
C28   C     C_R   0.499949 0.500114 0.921275 0.034847
C29   C     C_R   0.812339 0.500141 0.521634 0.007240
C30   C     C_R   0.187661 0.499859 0.478366 0.007241
C31   C     C_R   0.024456 0.498980 0.400931 -0.129588
C32   C     C_R   0.975543 0.501020 0.599069 -0.129587
C33   C     C_R   0.131900 0.499097 0.407848 -0.130919
C34   C     C_R   0.502372 0.147752 0.500182 -0.011570
C35   C     C_R   0.868100 0.500903 0.592152 -0.130919
C36   C     C_R   0.135284 0.500495 0.541998 -0.115328
C37   C     C_R   0.864716 0.499505 0.458002 -0.115330
C38   C     C_R   0.027917 0.500382 0.535546 0.048673
C39   C     C_R   0.972083 0.499618 0.464454 0.048673
C40   C     C_R   0.540223 0.743462 0.445076 -0.167461
C41   C     C_R   0.459785 0.256538 0.554928 -0.167461
C42   C     C_R   0.541437 0.814984 0.444645 -0.131744
C43   C     C_R   0.458571 0.185016 0.555360 -0.131744
C44   C     C_R   0.451623 0.817012 0.554988 -0.079454
C45   C     C_R   0.548366 0.182987 0.445009 -0.079454
C46   C     C_R   0.449939 0.745375 0.555879 0.228846
C47   C     C_R   0.550050 0.254624 0.444117 0.228846
C48   C     C_R   0.495584 0.707888 0.500808 0.024308
Cl1   Cl    Cl    0.384926 0.705708 0.624875 -0.592268
Cl2   Cl    Cl    0.615052 0.294290 0.375115 -0.592271
Cu1   Cu    Cu3+1 0.499970 0.500000 0.573360 0.985336
Cu2   Cu    Cu3+1 0.500030 0.500000 0.426640 0.985336
H1    H     H_    0.822171 0.498916 0.403318 0.131088
H2    H     H_    0.379854 0.426009 0.299772 0.126540
H3    H     H_    0.666002 0.511098 0.945301 0.102467
H4    H     H_    0.333993 0.488906 0.054699 0.102466
H5    H     H_    0.666091 0.510910 0.079701 0.106815
H6    H     H_    0.333907 0.489091 0.920299 0.106813
H7    H     H_    0.828802 0.501447 0.641899 0.129076
H8    H     H_    0.171198 0.498553 0.358101 0.129077
H9    H     H_    0.982440 0.498381 0.346115 0.110193
H10   H     H_    0.017560 0.501619 0.653885 0.110193
H11   H     H_    0.575794 0.715883 0.402339 0.125290
H12   H     H_    0.177829 0.501084 0.596682 0.131088
H13   H     H_    0.424222 0.284117 0.597668 0.125295
H14   H     H_    0.578070 0.841195 0.401831 0.120981
H15   H     H_    0.421945 0.158805 0.598177 0.120979
H16   H     H_    0.415201 0.845288 0.596815 0.145285
H17   H     H_    0.584780 0.154711 0.403179 0.145284
H18   H     H_    0.543364 0.937852 0.617933 0.112281
H19   H     H_    0.456632 0.062146 0.382069 0.112279
H20   H     H_    0.544806 0.063375 0.618222 0.110738
H21   H     H_    0.455192 0.936623 0.381779 0.110740
H22   H     H_    0.379704 0.426111 0.681125 0.112938
H23   H     H_    0.620285 0.573895 0.318874 0.112940
H24   H     H_    0.377712 0.424138 0.816545 0.090027
H25   H     H_    0.622276 0.575869 0.183454 0.090030
H26   H     H_    0.622077 0.576169 0.836039 0.095683
H27   H     H_    0.377931 0.423826 0.163962 0.095687
H28   H     H_    0.620155 0.573986 0.700228 0.126534
N1    N     N_R   0.499990 0.500020 0.683620 -0.214666
N2    N     N_R   0.500010 0.499980 0.316380 -0.214669
O1    O     O_R   0.499960 0.400180 0.561970 -0.523761
O2    O     O_R   0.500040 0.599820 0.438030 -0.523762
O3    O     O_R   0.500010 0.400190 0.438070 -0.445381
O4    O     O_R   0.499990 0.599810 0.561930 -0.445382
O5    O     O_R   0.348980 0.499990 0.551890 -0.499851
O6    O     O_R   0.651020 0.500010 0.448110 -0.499851
O7    O     O_R   0.349030 0.499990 0.427990 -0.520161
O8    O     O_R   0.650970 0.500010 0.572010 -0.520162

loop_
_geom_bond_atom_site_label_1
_geom_bond_atom_site_label_2
_ccdc_geom_bond_type
C17   O6    A    
C17   C29   S    
C31   H9    S    
C24   C27   A    
C12   C48   S    
C15   C19   A    
C46   Cl1   S    
C23   C42   A    
Cu2   O3    S    
C19   C21   A    
C24   C26   A    
C5    H20   S    
C40   H11   S    
C11   H24   S    
Cu1   O8    S    
C38   C39   A    
C11   C14   A    
C2    C41   A    
C16   C30   S    
C8    C23   S    
C12   O2    A    
C35   H7    S    
C1    C2    S    
Cu2   O2    S    
C14   C18   A    
C22   C25   A    
C16   O5    A    
C31   C33   A    
C32   C38   A    
Cu1   N1    S    
C37   H1    S    
C40   C42   A    
C16   O7    A    
C22   C28   A    
C20   N1    A    
C41   C43   A    
Cu2   O7    S    
C25   H5    S    
C4    C7    A    
Cu1   O4    S    
C44   C46   A    
C47   Cl2   S    
C46   C48   A    
C45   C47   A    
C1    O3    A    
C13   H25   S    
C20   H28   S    
C45   H17   S    
Cu1   Cu2   S    
C32   C35   A    
Cu2   O6    S    
C3    H18   S    
C4    C6    A    
C3    C8    A    
Cu1   O5    S    
C5    C7    A    
C41   H13   S    
C10   N2    A    
C23   C44   A    
C19   H27   S    
C26   H6    S    
C10   H23   S    
C15   C27   S    
C18   H26   S    
C34   C45   A    
Cu2   N2    S    
C9    C11   A    
C33   H8    S    
C13   C15   A    
C25   C27   A    
C7    C34   S    
C44   H16   S    
C1    O1    A    
C9    H22   S    
Cu1   O1    S    
C6    H21   S    
C40   C48   A    
C30   C33   A    
C17   O8    A    
C3    C5    A    
C10   C13   A    
C6    C8    A    
C22   H3    S    
C30   C36   A    
C2    C47   A    
C24   H4    S    
C29   C35   A    
C26   C28   A    
C12   O4    A    
C36   C38   A    
C32   H10   S    
C37   C39   A    
C21   H2    S    
C31   C39   A    
C18   C20   A    
C21   N2    A    
C43   H15   S    
C29   C37   A    
C42   H14   S    
C14   C28   S    
C36   H12   S    
C34   C43   A    
C4    H19   S    
C9    N1    A    
