data_str_m1_o26_o26_f0_pcu.sym.221
_audit_creation_date              2012-12-10T18:53:59-0500
_audit_creation_method            fapswitch 2.2
_symmetry_space_group_name_H-M    P1
_symmetry_Int_Tables_number       1
_space_group_crystal_system       triclinic
_cell_length_a                    19.467318
_cell_length_b                    19.388071
_cell_length_c                    19.522697
_cell_angle_alpha                 85.47416
_cell_angle_beta                  95.413775
_cell_angle_gamma                 89.858765
_cell_volume                      7312.41763919

loop_
_atom_site_label
_atom_site_type_symbol
_atom_type_description
_atom_site_fract_x
_atom_site_fract_y
_atom_site_fract_z
_atom_type_partial_charge
Br1   Br    Br    0.637282 0.481140 0.246382 -0.506642
Br2   Br    Br    0.618201 0.973646 0.518663 -0.533458
C1    C     C_R   0.311921 0.492449 0.491923 0.786922
C2    C     C_2   0.469439 0.980685 0.503839 -0.268363
C3    C     C_2   0.527983 0.016739 0.513511 0.211772
C4    C     C_R   0.688221 0.507268 0.507998 0.802747
C5    C     C_R   0.514185 0.236291 0.511547 -0.001762
C6    C     C_R   0.763666 0.506347 0.513991 -0.008620
C7    C     C_R   0.798231 0.465303 0.471899 -0.179862
C8    C     C_R   0.869630 0.461695 0.478587 -0.156754
C9    C     C_R   0.907762 0.499736 0.526970 0.198717
C10   C     C_R   0.873567 0.539773 0.570037 -0.170176
C11   C     C_R   0.801719 0.543488 0.563322 -0.191079
C12   C     C_R   0.470182 0.905545 0.501662 0.106120
C13   C     C_R   0.131942 0.457821 0.538860 -0.156203
C14   C     C_R   0.203553 0.457349 0.541905 -0.207353
C15   C     C_R   0.197446 0.522184 0.429856 -0.192061
C16   C     C_R   0.508510 0.492797 0.688691 0.789643
C17   C     C_R   0.125866 0.521908 0.426490 -0.173622
C18   C     C_R   0.092887 0.491047 0.481480 0.200980
C19   C     C_2   0.983299 0.497890 0.532897 -0.235474
C20   C     C_2   0.017546 0.493142 0.477089 -0.231844
C21   C     C_R   0.236705 0.490326 0.487812 0.003492
C22   C     C_R   0.487137 0.507927 0.236210 -0.068230
C23   C     C_R   0.443169 0.875189 0.441982 0.560344
C24   C     C_R   0.544919 0.491640 0.201813 0.257505
C25   C     C_R   0.536632 0.484721 0.131381 -0.183786
C26   C     C_R   0.472083 0.496414 0.093671 0.147320
C27   C     C_R   0.414960 0.513167 0.127623 -0.170841
C28   C     C_R   0.492231 0.508100 0.311279 0.834079
C29   C     C_R   0.422474 0.519221 0.198511 -0.243165
C30   C     C_R   0.467256 0.456216 0.872344 -0.151414
C31   C     C_R   0.466458 0.452221 0.801395 -0.208061
C32   C     C_R   0.557248 0.537640 0.797899 -0.190676
C33   C     C_R   0.558024 0.541582 0.868505 -0.179153
C34   C     C_R   0.448699 0.803438 0.439375 -0.297403
C35   C     C_R   0.512463 0.501882 0.906009 0.201148
C36   C     C_2   0.463990 0.491378 0.018749 -0.214206
C37   C     C_2   0.516093 0.507763 0.980542 -0.227083
C38   C     C_R   0.511037 0.493448 0.763682 0.000096
C39   C     C_R   0.508756 0.311832 0.508357 0.782286
C40   C     C_R   0.490977 0.688211 0.492488 0.829516
C41   C     C_R   0.483048 0.762893 0.494951 -0.072268
C42   C     C_R   0.508282 0.793735 0.554752 -0.190794
C43   C     C_R   0.500876 0.864386 0.558454 -0.170600
C44   C     C_3   0.456750 0.928191 0.336554 -0.290241
C45   C     C_R   0.567798 0.133624 0.476225 -0.123531
C46   C     C_R   0.562767 0.205170 0.474580 -0.197094
C47   C     C_R   0.471277 0.194697 0.550942 -0.180574
C48   C     C_R   0.476210 0.122968 0.552354 -0.193166
C49   C     C_R   0.524174 0.092153 0.514509 0.138978
H1    H     H_    0.533353 0.763179 0.598993 0.175080
H2    H     H_    0.011022 0.504227 0.582944 0.152960
H3    H     H_    0.894857 0.428506 0.446338 0.141285
H4    H     H_    0.596739 0.236019 0.443945 0.173679
H5    H     H_    0.096210 0.546950 0.381561 0.136804
H6    H     H_    0.430777 0.417362 0.776120 0.162904
H7    H     H_    0.592574 0.569734 0.770137 0.166799
H8    H     H_    0.563016 0.529454 0.004384 0.156132
H9    H     H_    0.364731 0.521855 0.099240 0.141421
H10   H     H_    0.433223 0.423010 0.900467 0.131177
H11   H     H_    0.377404 0.531151 0.224137 0.169640
H12   H     H_    0.442665 0.091502 0.582948 0.138196
H13   H     H_    0.413982 0.477169 0.994791 0.148317
H14   H     H_    0.581080 0.469687 0.106451 0.165104
H15   H     H_    0.433670 0.217464 0.580148 0.163393
H16   H     H_    0.593871 0.576330 0.893810 0.135485
H17   H     H_    0.604700 0.110818 0.446248 0.172560
H18   H     H_    0.427570 0.779927 0.393538 0.178976
H19   H     H_    0.419988 0.007458 0.493358 0.164233
H20   H     H_    0.520630 0.887400 0.605075 0.182497
H21   H     H_    0.471348 0.879511 0.314711 0.161908
H22   H     H_    0.503705 0.955057 0.357609 0.182637
H23   H     H_    0.770188 0.435405 0.434042 0.184469
H24   H     H_    0.431162 0.962729 0.293610 0.197221
H25   H     H_    0.232889 0.432071 0.586876 0.161718
H26   H     H_    0.222003 0.547272 0.387130 0.162582
H27   H     H_    0.989695 0.494970 0.426025 0.157003
H28   H     H_    0.902474 0.568854 0.608038 0.136205
H29   H     H_    0.107262 0.431787 0.580986 0.135554
H30   H     H_    0.776080 0.574895 0.596897 0.166172
O1    O     O_3   0.500000 0.500000 0.500000 -0.491415
O2    O     O_R   0.467830 0.341070 0.546160 -0.646673
O3    O     O_R   0.450560 0.655630 0.450550 -0.643273
O4    O     O_R   0.545840 0.347670 0.467560 -0.644733
O5    O     O_R   0.535760 0.655640 0.535740 -0.644300
O6    O     O_3   0.410092 0.915434 0.387007 -0.613644
O7    O     O_R   0.545870 0.536170 0.656040 -0.653936
O8    O     O_R   0.450550 0.545430 0.340370 -0.654972
O9    O     O_R   0.347960 0.451240 0.536460 -0.646414
O10   O     O_R   0.655630 0.467150 0.467130 -0.629501
O11   O     O_R   0.340780 0.536140 0.450970 -0.649611
O12   O     O_R   0.655640 0.545460 0.545430 -0.648431
O13   O     O_R   0.467850 0.451260 0.656340 -0.646096
O14   O     O_R   0.535740 0.467130 0.347260 -0.595636
Zn1   Zn    Zn3+2 0.558310 0.558310 0.558290 0.972816
Zn2   Zn    Zn3+2 0.446830 0.436990 0.558720 0.963804
Zn3   Zn    Zn3+2 0.558290 0.446420 0.446420 1.010411
Zn4   Zn    Zn3+2 0.436570 0.558290 0.436570 0.973387

loop_
_geom_bond_atom_site_label_1
_geom_bond_atom_site_label_2
_ccdc_geom_bond_type
C17   H5    S    
C46   H4    S    
O7    Zn1   S    
C6    C11   A    
C43   H20   S    
O1    Zn4   S    
C1    C21   S    
C17   C18   A    
C2    H19   S    
O14   Zn3   S    
C34   H18   S    
C24   C25   A    
C15   C21   A    
O8    Zn4   S    
C1    O9    A    
C32   C38   A    
C26   C27   A    
C33   C35   A    
C22   C24   A    
C30   H10   S    
C36   C37   D    
C4    O10   A    
C39   O2    A    
C10   H28   S    
C11   H30   S    
C23   O6    S    
C32   C33   A    
C16   C38   S    
O4    Zn3   S    
C45   C46   A    
C40   C41   S    
C6    C7    A    
C40   O5    A    
C26   C36   S    
C7    C8    A    
O9    Zn2   S    
C44   H21   S    
C42   H1    S    
C12   C23   A    
C19   C20   D    
C48   H12   S    
O1    Zn3   S    
C29   H11   S    
C28   O8    A    
C44   H24   S    
C12   C43   A    
C36   H13   S    
C13   C18   A    
C31   C38   A    
O1    Zn1   S    
C47   H15   S    
C40   O3    A    
C20   H27   S    
C45   C49   A    
O13   Zn2   S    
C9    C19   S    
C16   O7    A    
C1    O11   A    
C41   C42   A    
C28   O14   A    
C25   H14   S    
C13   H29   S    
C27   H9    S    
C33   H16   S    
C4    O12   A    
C37   H8    S    
C15   H26   S    
C48   C49   A    
C30   C35   A    
C5    C47   A    
O5    Zn1   S    
C18   C20   S    
O12   Zn1   S    
Br1   C24   S    
C16   O13   A    
O1    Zn2   S    
Br2   C3    S    
C7    H23   S    
C45   H17   S    
C42   C43   A    
C44   O6    S    
C31   H6    S    
C14   H25   S    
O3    Zn4   S    
C2    C3    D    
C4    C6    S    
C9    C10   A    
C14   C21   A    
C39   O4    A    
C30   C31   A    
C22   C29   A    
C35   C37   S    
C5    C46   A    
C19   H2    S    
C15   C17   A    
C5    C39   S    
O10   Zn3   S    
C2    C12   S    
C8    H3    S    
C22   C28   S    
C8    C9    A    
C23   C34   A    
C10   C11   A    
C27   C29   A    
C47   C48   A    
O2    Zn2   S    
C25   C26   A    
C32   H7    S    
C3    C49   S    
C34   C41   A    
C44   H22   S    
C13   C14   A    
O11   Zn4   S    
