data_str_m3_o13_o29_f0_pcu.sym.116
_audit_creation_date              2012-12-10T17:40:01-0500
_audit_creation_method            fapswitch 2.2
_symmetry_space_group_name_H-M    P1
_symmetry_Int_Tables_number       1
_space_group_crystal_system       triclinic
_cell_length_a                    12.084923
_cell_length_b                    12.82422
_cell_length_c                    27.703231
_cell_angle_alpha                 92.000824
_cell_angle_beta                  87.723994
_cell_angle_gamma                 94.678613
_cell_volume                      4273.59362266

loop_
_atom_site_label
_atom_site_type_symbol
_atom_type_description
_atom_site_fract_x
_atom_site_fract_y
_atom_site_fract_z
_atom_type_partial_charge
C1    C     C_R   0.522865 0.699738 0.498292 0.852566
C2    C     C_R   0.483549 0.603299 0.130371 0.007617
C3    C     C_R   0.503506 0.503804 0.647505 -0.071226
C4    C     C_R   0.493278 0.501182 0.352693 -0.115277
C5    C     C_R   0.490381 0.611081 0.028808 0.051803
C6    C     C_R   0.455259 0.422847 0.973789 0.051576
C7    C     C_R   0.430312 0.423887 0.024137 0.032996
C8    C     C_R   0.476016 0.614623 0.978398 0.031047
C9    C     C_R   0.455659 0.516347 0.051896 0.046653
C10   C     C_R   0.466268 0.520227 0.950665 0.046906
C11   C     C_R   0.535765 0.697680 0.057270 -0.045246
C12   C     C_R   0.477070 0.300140 0.501364 0.864297
C13   C     C_R   0.467507 0.329455 0.945420 -0.038165
C14   C     C_R   0.527122 0.694012 0.107515 -0.217223
C15   C     C_R   0.468809 0.333386 0.895218 -0.217414
C16   C     C_R   0.501533 0.499575 0.594104 0.866790
C17   C     C_R   0.498715 0.500423 0.405911 0.849528
C18   C     C_R   0.464215 0.708883 0.955580 -0.117206
C19   C     C_R   0.374755 0.337482 0.046876 -0.117087
C20   C     C_R   0.461437 0.188415 0.500694 -0.112072
C21   C     C_R   0.538428 0.811292 0.498417 -0.112087
C22   C     C_R   0.602583 0.965109 0.543583 -0.153551
C23   C     C_R   0.467603 0.523266 0.899795 -0.082807
C24   C     C_R   0.397724 0.034741 0.455124 -0.144808
C25   C     C_R   0.606192 0.859864 0.533282 -0.219579
C26   C     C_R   0.394316 0.140144 0.465486 -0.209808
C27   C     C_R   0.469869 0.867364 0.470900 -0.088697
C28   C     C_R   0.529490 0.131929 0.528187 -0.122312
C29   C     C_R   0.466359 0.975112 0.480940 0.126699
C30   C     C_R   0.533438 0.024429 0.517903 0.126441
C31   C     C_R   0.946322 0.396110 0.456513 -0.288245
C32   C     C_R   0.053837 0.604850 0.542989 -0.301909
C33   C     C_R   0.832607 0.406965 0.460539 0.030706
C34   C     C_R   0.447393 0.513559 0.102766 -0.078976
C35   C     C_R   0.167429 0.593232 0.539356 0.014357
C36   C     C_R   0.862334 0.546844 0.518675 0.322566
C37   C     C_R   0.137782 0.454032 0.480875 0.305305
C38   C     C_R   0.978839 0.538726 0.515523 0.053350
C39   C     C_R   0.021270 0.462096 0.484060 0.045545
C40   C     C_R   0.476545 0.618533 0.825417 0.578817
C41   C     C_R   0.407747 0.419978 0.176849 0.587774
C42   C     C_R   0.473480 0.431890 0.822074 0.556495
C43   C     C_R   0.483151 0.598057 0.180541 0.544274
C44   C     C_R   0.595750 0.505732 0.724939 -0.043073
C45   C     C_R   0.468825 0.620295 0.876508 -0.039697
C46   C     C_R   0.572741 0.487250 0.270081 -0.011964
C47   C     C_R   0.600426 0.491927 0.673959 -0.127700
C48   C     C_R   0.586836 0.489009 0.320627 -0.099593
C49   C     C_R   0.404469 0.526055 0.672665 -0.221907
C50   C     C_R   0.388790 0.511488 0.333635 -0.209073
C51   C     C_R   0.399606 0.536283 0.722392 -0.143984
C52   C     C_R   0.375657 0.510490 0.284380 -0.126753
C53   C     C_R   0.493490 0.525817 0.748583 0.318513
C54   C     C_R   0.466154 0.499144 0.252683 0.286191
C55   C     C_3   0.182289 0.373550 0.445831 -0.864040
C56   C     C_R   0.404469 0.420978 0.125938 -0.036834
C57   C     C_3   0.818026 0.629309 0.552680 -0.859932
C58   C     C_3   0.451249 0.819798 0.884514 -0.744828
C59   C     C_3   0.302913 0.236178 0.117977 -0.737975
C60   C     C_2   0.698603 0.477595 0.339184 0.365311
C61   C     C_2   0.706971 0.466000 0.649878 0.410704
C62   C     C_2   0.669998 0.477240 0.235772 0.493930
C63   C     C_2   0.696391 0.495416 0.753464 0.419161
C64   C     C_2   0.607901 0.786441 0.037338 0.396243
C65   C     C_2   0.495737 0.229371 0.965378 0.392519
C66   C     C_2   0.595071 0.187851 0.566985 0.464187
C67   C     C_R   0.461828 0.713792 0.905296 0.188925
C68   C     C_2   0.402979 0.810524 0.432630 0.419874
C69   C     C_R   0.361933 0.333905 0.097162 0.185289
C70   C     C_R   0.467904 0.428781 0.872313 0.001399
H1    H     H_    0.329190 0.535882 0.653955 0.176841
H2    H     H_    0.026591 0.666009 0.567379 0.169257
H3    H     H_    0.321523 0.550842 0.740973 0.148795
H4    H     H_    0.294635 0.520195 0.270570 0.151656
H5    H     H_    0.561114 0.760688 0.128870 0.188940
H6    H     H_    0.476418 0.261607 0.873885 0.187109
H7    H     H_    0.454423 0.779651 0.977185 0.139179
H8    H     H_    0.339359 0.272222 0.025215 0.138117
H9    H     H_    0.272063 0.374055 0.443733 0.289505
H10   H     H_    0.149543 0.293824 0.456390 0.224412
H11   H     H_    0.157017 0.388120 0.408709 0.217840
H12   H     H_    0.315809 0.520875 0.356853 0.185769
H13   H     H_    0.728161 0.626084 0.556238 0.283874
H14   H     H_    0.846585 0.619606 0.589686 0.204548
H15   H     H_    0.847916 0.708338 0.540145 0.220584
H16   H     H_    0.440222 0.881378 0.913116 0.203012
H17   H     H_    0.527775 0.844724 0.863068 0.282149
H18   H     H_    0.377364 0.816708 0.861779 0.252938
H19   H     H_    0.268813 0.181070 0.089427 0.206718
H20   H     H_    0.361751 0.193592 0.138131 0.280674
H21   H     H_    0.231727 0.257052 0.141955 0.255536
H22   H     H_    0.736518 0.537018 0.363521 0.097814
H23   H     H_    0.344652 0.185553 0.443657 0.158383
H24   H     H_    0.782964 0.513431 0.657758 0.036276
H25   H     H_    0.753315 0.502172 0.246884 0.086624
H26   H     H_    0.763189 0.450773 0.738897 0.068808
H27   H     H_    0.613725 0.861664 0.056688 0.078698
H28   H     H_    0.474113 0.155924 0.946015 0.060138
H29   H     H_    0.554669 0.240513 0.592245 0.087442
H30   H     H_    0.441685 0.755072 0.408178 0.056586
H31   H     H_    0.656276 0.814736 0.555055 0.156372
H32   H     H_    0.652059 0.997637 0.572880 0.194698
H33   H     H_    0.348623 0.002334 0.425686 0.197624
H34   H     H_    0.223985 0.643988 0.560624 0.146873
H35   H     H_    0.776041 0.356105 0.439324 0.170799
H36   H     H_    0.973770 0.335611 0.431791 0.180812
N1    N     N_R   0.480768 0.525641 0.800032 -0.336402
N2    N     N_R   0.450060 0.506377 0.202192 -0.339857
N3    N     N_R   0.207800 0.519340 0.508990 -0.103749
N4    N     N_R   0.792200 0.480660 0.491010 -0.107979
O1    O     O_R   0.421700 0.658820 0.502400 -0.601408
O2    O     O_2   0.373011 0.333430 0.201174 -0.550579
O3    O     O_2   0.518496 0.682894 0.207676 -0.565970
O4    O     O_2   0.473191 0.342017 0.795145 -0.558315
O5    O     O_2   0.748783 0.401239 0.327479 -0.561047
O6    O     O_2   0.711904 0.387920 0.623705 -0.506582
O7    O     O_2   0.658825 0.439436 0.195035 -0.550865
O8    O     O_2   0.707100 0.538185 0.793258 -0.543690
O9    O     O_2   0.666423 0.774913 0.000893 -0.522000
O10   O     O_2   0.548989 0.228275 0.001883 -0.525513
O11   O     O_2   0.695066 0.181440 0.568774 -0.518178
O12   O     O_R   0.578300 0.341180 0.497600 -0.588958
O13   O     O_2   0.303410 0.819011 0.430519 -0.560149
O14   O     O_R   0.609310 0.646410 0.496630 -0.635052
O15   O     O_R   0.390690 0.353590 0.503370 -0.627951
O16   O     O_R   0.406200 0.506190 0.574130 -0.628435
O17   O     O_R   0.593800 0.493810 0.425870 -0.631613
O18   O     O_R   0.593820 0.493770 0.568360 -0.591409
O19   O     O_R   0.406180 0.506230 0.431640 -0.629869
O20   O     O_2   0.482238 0.707790 0.800857 -0.557561
Zn1   Zn    Zn3+2 0.374730 0.508290 0.503850 0.960046
Zn2   Zn    Zn3+2 0.625270 0.491710 0.496150 0.982385

loop_
_geom_bond_atom_site_label_1
_geom_bond_atom_site_label_2
_ccdc_geom_bond_type
C1    C21   S    
C23   C45   A    
C41   N2    A    
C27   C29   A    
C58   H17   S    
C3    C49   A    
C32   H2    S    
C13   C65   S    
C34   C56   A    
C5    C9    A    
C64   O9    D    
C46   C62   S    
C24   C26   A    
C65   H28   S    
C5    C11   A    
C52   H4    S    
C38   C39   A    
C11   C14   A    
O18   Zn2   S    
C42   C70   A    
O14   Zn2   S    
C59   H19   S    
C3    C47   A    
C53   N1    S    
O17   Zn2   S    
C62   O7    D    
C21   C25   A    
C27   C68   S    
C24   C29   A    
C44   C53   A    
C42   O4    S    
C31   C39   A    
C49   C51   A    
C41   O2    S    
C45   C67   A    
C50   C52   A    
C31   C33   A    
N4    Zn2   S    
C32   C38   A    
C55   H11   S    
C42   N1    A    
C37   N3    A    
C35   N3    A    
C44   C47   A    
C2    C34   A    
C26   H23   S    
C15   H6    S    
C21   C27   A    
C62   H25   S    
C23   C70   A    
C46   C54   A    
C58   H16   S    
C68   O13   D    
O12   Zn2   S    
C52   C54   A    
C48   C60   S    
C60   H22   S    
C44   C63   S    
C40   C45   A    
C46   C48   A    
C66   O11   D    
C17   O19   A    
C32   C35   A    
C33   H35   S    
C11   C64   S    
C63   O8    D    
C61   H24   S    
C17   O17   A    
C12   O15   A    
C20   C28   A    
C18   C67   A    
C63   H26   S    
C22   C25   A    
C8    C18   A    
C4    C50   A    
C51   C53   A    
C59   H20   S    
C66   H29   S    
C19   H8    S    
C28   C66   S    
C68   H30   S    
C41   C56   A    
N3    Zn1   S    
C29   C30   A    
C55   H9    S    
O15   Zn1   S    
C2    C43   A    
C12   C20   S    
C61   O6    D    
C57   H13   S    
C57   H14   S    
C59   H21   S    
C16   O18   A    
C59   C69   S    
C40   N1    A    
C4    C17   S    
O1    Zn1   S    
C64   H27   S    
C35   H34   S    
C7    C19   A    
C13   C15   A    
C36   N4    A    
C9    C34   A    
C31   H36   S    
C19   C69   A    
C50   H12   S    
C4    C48   A    
C7    C9    A    
C15   C70   A    
C40   O20   S    
C36   C57   S    
C22   C30   A    
C51   H3    S    
C58   H18   S    
C47   C61   S    
C5    C8    A    
C6    C7    A    
C10   C23   A    
C22   H32   S    
C54   N2    S    
C24   H33   S    
C14   H5    S    
C36   C38   A    
C1    O14   A    
C37   C39   A    
C1    O1    A    
C6    C13   A    
C55   H10   S    
C25   H31   S    
C20   C26   A    
O16   Zn1   S    
C18   H7    S    
C28   C30   A    
C65   O10   D    
C57   H15   S    
C43   N2    A    
C2    C14   A    
C6    C10   A    
C37   C55   S    
C58   C67   S    
C12   O12   A    
C8    C10   A    
C56   C69   A    
C49   H1    S    
C60   O5    D    
C33   N4    A    
C16   O16   A    
C43   O3    S    
C3    C16   S    
O19   Zn1   S    
