data_str_m4_o20_o25_f0_acs.sym.15
_audit_creation_date              2012-12-11T15:02:47-0500
_audit_creation_method            fapswitch 2.2
_symmetry_space_group_name_H-M    P1
_symmetry_Int_Tables_number       1
_space_group_crystal_system       triclinic
_cell_length_a                    13.2736
_cell_length_b                    13.277166
_cell_length_c                    26.783625
_cell_angle_alpha                 96.573836
_cell_angle_beta                  96.916376
_cell_angle_gamma                 61.264317
_cell_volume                      4100.1112626

loop_
_atom_site_label
_atom_site_type_symbol
_atom_type_description
_atom_site_fract_x
_atom_site_fract_y
_atom_site_fract_z
_atom_type_partial_charge
C1    C     C_R   0.378723 0.723548 0.435035 0.544006
C2    C     C_3   0.860281 0.303897 0.199778 -0.007714
C3    C     C_3   0.875261 0.394119 0.271049 -0.156295
C4    C     C_R   0.394391 0.373062 0.418049 0.543796
C5    C     C_3   0.833485 0.324742 0.297032 0.055235
C6    C     C_3   0.778409 0.416718 0.228131 -0.108846
C7    C     C_3   0.739434 0.345515 0.254226 0.132166
C8    C     C_1   0.876767 0.296795 0.146744 -0.055152
C9    C     C_1   0.809990 0.341658 0.349640 -0.039556
C10   C     C_3   0.381291 0.903280 0.272384 -0.107515
C11   C     C_3   0.448512 0.803902 0.233152 -0.124802
C12   C     C_1   0.324972 0.334027 0.269179 -0.016596
C13   C     C_1   0.306376 0.888433 0.101383 -0.011341
C14   C     C_1   0.360654 0.775222 0.388897 -0.016935
C15   C     C_3   0.270803 0.944886 0.235830 -0.099388
C16   C     C_R   0.725229 0.398970 0.437453 0.543232
C17   C     C_3   0.338301 0.845113 0.197492 0.046057
C18   C     C_3   0.234628 0.866259 0.258968 -0.071365
C19   C     C_3   0.345169 0.824623 0.294499 0.025071
C20   C     C_3   0.303241 0.768472 0.220748 0.166957
C21   C     C_3   0.413059 0.724600 0.256355 -0.078669
C22   C     C_1   0.326224 0.862268 0.144124 -0.052429
C23   C     C_1   0.340137 0.343704 0.322021 -0.044747
C24   C     C_1   0.351230 0.804601 0.347206 -0.058642
C25   C     C_3   0.332899 0.244086 0.720697 -0.098686
C26   C     C_3   0.416047 0.254923 0.764056 -0.097313
C27   C     C_1   0.295863 0.309428 0.887404 -0.008816
C28   C     C_R   0.381546 0.724479 0.575488 0.543218
C29   C     C_1   0.362006 0.359333 0.603646 -0.008735
C30   C     C_3   0.228530 0.328685 0.750823 -0.097906
C31   C     C_3   0.312047 0.339664 0.793392 0.047304
C32   C     C_3   0.223134 0.431956 0.726657 -0.097811
C33   C     C_3   0.327253 0.347009 0.697427 0.047424
C34   C     C_1   0.360218 0.354621 0.366680 -0.007433
C35   C     C_3   0.306405 0.442693 0.770197 -0.099001
C36   C     C_3   0.410689 0.358028 0.740035 -0.097707
C37   C     C_1   0.304196 0.328504 0.845894 -0.052163
C38   C     C_1   0.341915 0.351631 0.645030 -0.052315
C39   C     C_1   0.888884 0.294600 0.864784 -0.006335
C40   C     C_R   0.395645 0.375857 0.558160 0.545489
C41   C     C_1   0.861361 0.306290 0.820431 -0.043034
C42   C     C_1   0.838562 0.320105 0.768118 -0.007324
C43   C     C_1   0.821580 0.333449 0.723550 -0.007418
C44   C     C_1   0.798969 0.352380 0.671657 -0.043465
C45   C     C_3   0.913540 0.214069 0.268008 0.287913
C46   C     C_1   0.771740 0.372818 0.627934 -0.006814
C47   C     C_1   0.293114 0.894037 0.863123 -0.007241
C48   C     C_1   0.312800 0.866449 0.819466 -0.043250
C49   C     C_1   0.330522 0.842866 0.767565 -0.005025
C50   C     C_1   0.342777 0.824851 0.722985 -0.005122
C51   C     C_1   0.355460 0.800873 0.670702 -0.043086
C52   C     C_R   0.724255 0.403565 0.577616 0.542771
C53   C     C_1   0.366509 0.772646 0.626466 -0.007029
C54   C     C_R   0.942734 0.277755 0.056782 0.544688
C55   C     C_R   0.287694 0.270729 0.073491 0.543454
C56   C     C_3   0.818718 0.232893 0.224931 -0.079784
C57   C     C_R   0.270940 0.937148 0.053836 0.544517
C58   C     C_R   0.936772 0.279444 0.915961 0.543154
C59   C     C_R   0.281539 0.274213 0.932996 0.545215
C60   C     C_R   0.262603 0.941191 0.913299 0.543586
C61   C     C_1   0.302933 0.299461 0.125858 -0.008122
C62   C     C_1   0.310355 0.314779 0.170941 -0.060656
C63   C     C_1   0.316913 0.326117 0.223900 -0.030349
C64   C     C_3   0.221838 0.638739 0.221373 -0.314592
C65   C     C_3   0.925585 0.058856 0.305109 -0.022617
C66   C     C_3   0.982000 0.999744 0.353880 -0.365612
C67   C     C_1   0.899328 0.290352 0.104220 -0.007197
C68   C     C_3   0.545952 0.399480 0.216372 -0.295604
C69   C     C_1   0.778536 0.363279 0.391323 -0.015478
C70   C     C_3   0.957995 0.281283 0.241844 -0.079206
Cr1   Cr    Cr6+3 0.585520 0.589730 0.508860 1.035132
Cr2   Cr    Cr6+3 0.329140 0.580910 0.495080 1.031234
Cr3   Cr    Cr6+3 0.585350 0.329380 0.496090 1.032583
Cr4   Cr    Cr6+3 0.077110 0.074680 0.982320 1.034811
Cr5   Cr    Cr6+3 0.079190 0.334150 0.996330 1.034735
Cr6   Cr    Cr6+3 0.334370 0.081620 0.994860 1.034734
H1    H     H_    0.794849 0.167747 0.205890 0.098328
H2    H     H_    0.720995 0.500086 0.211176 0.112232
H3    H     H_    0.898936 0.459214 0.290326 0.117950
H4    H     H_    0.049394 0.252959 0.235905 0.116073
H5    H     H_    0.535868 0.778219 0.221897 0.108871
H6    H     H_    0.412885 0.959674 0.294669 0.123043
H7    H     H_    0.470454 0.634206 0.265506 0.104467
H8    H     H_    0.204088 0.734742 0.161894 0.256871
H9    H     H_    0.205250 0.574332 0.196769 0.157124
H10   H     H_    0.140461 0.702709 0.238030 0.131968
H11   H     H_    0.287665 0.593849 0.252074 0.155461
H12   H     H_    0.147215 0.889439 0.268863 0.139064
H13   H     H_    0.926770 0.993507 0.274956 0.126880
H14   H     H_    0.833866 0.120838 0.311666 0.140807
H15   H     H_    0.979035 0.064599 0.384619 0.165356
H16   H     H_    0.935145 0.955974 0.364478 0.103438
H17   H     H_    0.073180 0.934809 0.349336 0.157142
H18   H     H_    0.587857 0.445896 0.289708 0.247317
H19   H     H_    0.457765 0.425054 0.225978 0.158648
H20   H     H_    0.576220 0.319345 0.191343 0.161315
H21   H     H_    0.542766 0.469666 0.196188 0.149353
H22   H     H_    0.212710 0.035544 0.226706 0.128869
H23   H     H_    0.495447 0.182609 0.780230 0.117022
H24   H     H_    0.343488 0.162906 0.699699 0.115849
H25   H     H_    0.485987 0.369822 0.734751 0.117734
H26   H     H_    0.295867 0.523802 0.791246 0.116463
H27   H     H_    0.143849 0.504192 0.710378 0.116887
H28   H     H_    0.153289 0.316853 0.756165 0.118009
N1    N     N_2   0.261672 0.695215 0.191760 -0.522563
N2    N     N_2   0.620952 0.380393 0.262060 -0.523992
O1    O     O_R   0.700650 0.499560 0.456090 -0.506365
O2    O     O_R   0.362310 0.174000 0.055490 -0.506362
O3    O     O_R   0.326800 0.983030 0.039600 -0.494486
O4    O     O_R   0.479220 0.682850 0.457510 -0.492788
O5    O     O_R   0.165220 0.960770 0.926060 -0.504859
O6    O     O_R   0.978660 0.179890 0.932950 -0.493743
O7    O     O_R   0.960490 0.356500 0.937600 -0.504138
O8    O     O_R   0.182720 0.328380 0.950570 -0.494228
O9    O     O_R   0.356860 0.175610 0.946640 -0.505567
O10   O     O_R   0.321740 0.984530 0.938700 -0.493420
O11   O     O_3   0.163560 0.163490 0.991170 -0.255026
O12   O     O_R   0.338920 0.475010 0.540740 -0.494286
O13   O     O_R   0.304230 0.696360 0.445090 -0.510447
O14   O     O_R   0.337790 0.472640 0.439840 -0.496150
O15   O     O_R   0.493310 0.300190 0.435520 -0.504971
O16   O     O_R   0.681220 0.340950 0.451270 -0.495956
O17   O     O_R   0.701870 0.502110 0.564940 -0.504576
O18   O     O_R   0.480360 0.685220 0.558410 -0.493804
O19   O     O_R   0.305450 0.698920 0.553940 -0.504636
O20   O     O_3   0.988584 0.110538 0.290964 -0.570113
O21   O     O_R   0.494530 0.302750 0.544370 -0.505506
O22   O     O_R   0.682350 0.343320 0.552170 -0.494223
O23   O     O_3   0.500010 0.500010 0.500010 -0.253615
O24   O     O_R   0.170670 0.959150 0.034900 -0.506642
O25   O     O_R   0.983710 0.178390 0.033850 -0.494903
O26   O     O_R   0.965940 0.354890 0.046440 -0.506579
O27   O     O_R   0.187770 0.326880 0.051460 -0.494839

loop_
_geom_bond_atom_site_label_1
_geom_bond_atom_site_label_2
_ccdc_geom_bond_type
C15   C18   S    
C40   O12   A    
Cr1   O1    S    
C41   C42   S    
C35   C36   S    
Cr5   O11   S    
C35   H26   S    
C3    H3    S    
C33   C36   S    
C52   O22   A    
Cr2   O23   S    
C39   C41   T    
C11   H5    S    
C65   H13   S    
C54   O25   A    
C12   C23   S    
C68   H20   S    
Cr6   O9    S    
C58   O6    A    
Cr1   O17   S    
C19   C21   S    
C9    C69   T    
C10   C15   S    
Cr4   O6    S    
C30   C31   S    
C52   O17   A    
C6    H2    S    
C13   C57   S    
Cr1   O4    S    
C46   C52   S    
C17   C20   S    
Cr2   O13   S    
C18   C19   S    
C1    O13   A    
C14   C24   T    
C49   C50   T    
C16   O16   A    
C68   H21   S    
C16   O1    A    
C47   C60   S    
C57   O3    A    
C21   H7    S    
C45   C56   S    
Cr6   O3    S    
C29   C38   T    
C4    O15   A    
C58   O7    A    
Cr5   O7    S    
C45   O20   S    
C64   H11   S    
Cr3   O21   S    
C26   H23   S    
C3    C6    S    
C26   C31   S    
Cr6   O2    S    
Cr4   O25   S    
C2    C6    S    
C68   N2    S    
C7    C56   S    
C64   H10   S    
C44   C46   T    
H8    N1    S    
C4    C34   S    
C65   H14   S    
Cr3   O23   S    
C32   H27   S    
C68   H19   S    
C70   H4    S    
C32   C35   S    
C57   O24   A    
C64   N1    S    
C3    C70   S    
Cr4   O5    S    
C5    C7    S    
C12   C63   T    
C66   H16   S    
C54   C67   S    
C25   C26   S    
C55   O27   A    
C39   C58   S    
C5    C45   S    
C10   H6    S    
C18   H12   S    
C56   H1    S    
C31   C37   S    
C36   H25   S    
C51   C53   T    
C43   C44   S    
C5    C9    S    
C62   C63   S    
C1    O4    A    
Cr1   O23   S    
Cr1   O18   S    
C25   H24   S    
C47   C48   T    
C10   C19   S    
C23   C34   T    
Cr2   O14   S    
C28   O18   A    
C50   C51   S    
C7    N2    S    
Cr5   O8    S    
C6    C7    S    
C66   H17   S    
C26   C36   S    
C48   C49   S    
C65   C66   S    
Cr3   O15   S    
Cr4   O24   S    
C31   C35   S    
C60   O10   A    
C42   C43   T    
C15   H22   S    
C30   H28   S    
C64   H9    S    
C28   O19   A    
C20   N1    S    
C25   C30   S    
C15   C17   S    
Cr4   O11   S    
C11   C17   S    
C45   C70   S    
C2    C8    S    
C16   C69   S    
C17   C22   S    
C3    C5    S    
C28   C53   S    
Cr5   O27   S    
C66   H15   S    
Cr3   O22   S    
C54   O26   A    
C55   O2    A    
Cr6   O11   S    
Cr5   O26   S    
Cr2   O19   S    
C32   C33   S    
C19   C24   S    
C60   O5    A    
C27   C59   S    
C65   O20   S    
C30   C32   S    
C40   O21   A    
C27   C37   T    
C59   O8    A    
C55   C61   S    
C29   C40   S    
Cr6   O10   S    
C11   C21   S    
C13   C22   T    
C18   C20   S    
C61   C62   T    
H18   N2    S    
C10   C11   S    
C20   C21   S    
C8    C67   T    
C59   O9    A    
Cr3   O16   S    
Cr2   O12   S    
C4    O14   A    
C33   C38   S    
C2    C56   S    
C1    C14   S    
C2    C70   S    
C25   C33   S    
