data_str_m1_o6_o23_f0_pcu.sym.130
_audit_creation_date              2013-03-05T16:36:51-0500
_audit_creation_method            fapswitch 2.2
_symmetry_space_group_name_H-M    P1
_symmetry_Int_Tables_number       1
_space_group_crystal_system       triclinic
_cell_length_a                    36.258087
_cell_length_b                    25.698458
_cell_length_c                    25.687805
_cell_angle_alpha                 90.000055
_cell_angle_beta                  90.000018
_cell_angle_gamma                 90.000159
_cell_volume                      23935.3039767

loop_
_atom_site_label
_atom_site_type_symbol
_atom_site_description
_atom_site_fract_x
_atom_site_fract_y
_atom_site_fract_z
_atom_type_partial_charge
Zn1   Zn    Zn3+2 0.719300 0.249980 0.438970 1.024717
Zn2   Zn    Zn3+2 0.280700 0.249980 0.438970 1.024067
Zn3   Zn    Zn3+2 0.280700 0.249980 0.561030 1.024725
Zn4   Zn    Zn3+2 0.719300 0.249980 0.561030 1.024097
Zn5   Zn    Zn3+2 0.219300 0.749980 0.938970 1.024053
Zn6   Zn    Zn3+2 0.780700 0.749980 0.938970 1.024673
Zn7   Zn    Zn3+2 0.780700 0.749980 0.061030 1.024113
Zn8   Zn    Zn3+2 0.219300 0.749980 0.061030 1.024753
Zn9   Zn    Zn3+2 0.780720 0.311020 0.500000 1.007664
Zn10  Zn    Zn3+2 0.219280 0.311020 0.500000 1.007625
Zn11  Zn    Zn3+2 0.280720 0.811020 0.000000 1.007626
Zn12  Zn    Zn3+2 0.719280 0.811020 0.000000 1.007632
Zn13  Zn    Zn3+2 0.780730 0.188950 0.500000 1.015517
Zn14  Zn    Zn3+2 0.219270 0.188950 0.500000 1.015585
Zn15  Zn    Zn3+2 0.280730 0.688950 0.000000 1.015563
Zn16  Zn    Zn3+2 0.719270 0.688950 0.000000 1.015601
O1    O     O_3   0.750020 0.249980 0.500000 -0.505079
O2    O     O_3   0.249980 0.249980 0.500000 -0.505085
O3    O     O_3   0.250020 0.749980 0.000000 -0.505085
O4    O     O_3   0.749980 0.749980 0.000000 -0.505079
O5    O     O_R   0.728520 0.310110 0.602800 -0.618231
O6    O     O_R   0.271480 0.310110 0.602800 -0.618288
O7    O     O_R   0.271480 0.310110 0.397200 -0.618279
O8    O     O_R   0.728520 0.310110 0.397200 -0.618391
O9    O     O_R   0.228520 0.810110 0.102800 -0.618349
O10   O     O_R   0.771480 0.810110 0.102800 -0.618314
O11   O     O_R   0.771480 0.810110 0.897200 -0.618347
O12   O     O_R   0.228520 0.810110 0.897200 -0.618189
O13   O     O_R   0.728520 0.189860 0.397190 -0.621459
O14   O     O_R   0.271480 0.189860 0.397190 -0.621718
O15   O     O_R   0.271480 0.189860 0.602810 -0.621321
O16   O     O_R   0.728520 0.189860 0.602810 -0.621763
O17   O     O_R   0.228520 0.689860 0.897190 -0.621667
O18   O     O_R   0.771480 0.689860 0.897190 -0.621340
O19   O     O_R   0.771480 0.689860 0.102810 -0.621767
O20   O     O_R   0.228520 0.689860 0.102810 -0.621427
O21   O     O_R   0.771490 0.352810 0.439870 -0.632941
O22   O     O_R   0.228510 0.352810 0.439870 -0.633030
O23   O     O_R   0.228510 0.352810 0.560130 -0.632980
O24   O     O_R   0.771490 0.352810 0.560130 -0.632977
O25   O     O_R   0.271490 0.852810 0.939870 -0.633135
O26   O     O_R   0.728510 0.852810 0.939870 -0.633086
O27   O     O_R   0.728510 0.852810 0.060130 -0.632900
O28   O     O_R   0.271490 0.852810 0.060130 -0.632860
O29   O     O_R   0.771530 0.147160 0.560090 -0.624111
O30   O     O_R   0.228470 0.147160 0.560090 -0.624137
O31   O     O_R   0.228470 0.147160 0.439910 -0.624085
O32   O     O_R   0.771530 0.147160 0.439910 -0.624076
O33   O     O_R   0.271530 0.647160 0.060090 -0.624014
O34   O     O_R   0.728470 0.647160 0.060090 -0.624087
O35   O     O_R   0.728470 0.647160 0.939910 -0.624221
O36   O     O_R   0.271530 0.647160 0.939910 -0.624151
O37   O     O_R   0.832000 0.292700 0.500000 -0.623510
O38   O     O_R   0.168000 0.292700 0.500000 -0.623464
O39   O     O_R   0.332000 0.792700 0.000000 -0.623477
O40   O     O_R   0.668000 0.792700 0.000000 -0.623511
O41   O     O_R   0.668030 0.249990 0.542720 -0.622509
O42   O     O_R   0.331970 0.249990 0.542720 -0.621708
O43   O     O_R   0.331970 0.249990 0.457280 -0.622454
O44   O     O_R   0.668030 0.249990 0.457280 -0.621562
O45   O     O_R   0.168030 0.749990 0.042720 -0.621613
O46   O     O_R   0.831970 0.749990 0.042720 -0.622455
O47   O     O_R   0.831970 0.749990 0.957280 -0.621652
O48   O     O_R   0.168030 0.749990 0.957280 -0.622537
O49   O     O_R   0.832010 0.207260 0.500000 -0.630915
O50   O     O_R   0.167990 0.207260 0.500000 -0.630901
O51   O     O_R   0.332010 0.707260 0.000000 -0.630940
O52   O     O_R   0.667990 0.707260 0.000000 -0.630807
C1    C     C_R   0.749997 0.349038 0.599070 0.825073
C2    C     C_R   0.250006 0.349040 0.599068 0.824922
C3    C     C_R   0.250004 0.349038 0.400930 0.824977
C4    C     C_R   0.749996 0.349039 0.400931 0.824941
C5    C     C_R   0.249995 0.849039 0.099069 0.825013
C6    C     C_R   0.750003 0.849038 0.099070 0.825094
C7    C     C_R   0.750005 0.849040 0.900932 0.824821
C8    C     C_R   0.249996 0.849039 0.900930 0.824932
C9    C     C_R   0.750023 0.150923 0.400976 0.823065
C10   C     C_R   0.249976 0.150923 0.400975 0.822854
C11   C     C_R   0.249977 0.150923 0.599025 0.823056
C12   C     C_R   0.750024 0.150924 0.599025 0.822758
C13   C     C_R   0.250024 0.650924 0.900975 0.822747
C14   C     C_R   0.749977 0.650923 0.900976 0.823049
C15   C     C_R   0.749977 0.650923 0.099025 0.822903
C16   C     C_R   0.250023 0.650923 0.099024 0.823122
C17   C     C_R   0.849531 0.249995 0.500000 0.829813
C18   C     C_R   0.150469 0.249995 0.500000 0.829886
C19   C     C_R   0.349531 0.749995 0.999998 0.829841
C20   C     C_R   0.650469 0.749995 0.999998 0.829935
C21   C     C_R   0.650345 0.250001 0.499998 0.825526
C22   C     C_R   0.349655 0.250001 0.500002 0.825384
C23   C     C_R   0.150345 0.750001 0.000002 0.825405
C24   C     C_R   0.849655 0.750001 0.999998 0.825469
C25   C     C_3   0.521781 0.222089 0.549980 -0.017448
C26   C     C_3   0.478432 0.220038 0.548932 -0.023046
C27   C     C_3   0.478220 0.221501 0.450350 -0.017493
C28   C     C_3   0.521568 0.219463 0.451422 -0.023105
C29   C     C_3   0.021568 0.720024 0.048928 -0.023105
C30   C     C_3   0.978219 0.722076 0.049977 -0.017441
C31   C     C_3   0.978432 0.719469 0.951418 -0.023015
C32   C     C_3   0.021781 0.721511 0.950345 -0.017492
H1    H     H_    0.470350 0.178421 0.545023 0.114993
H2    H     H_    0.531938 0.181201 0.549825 0.118779
H3    H     H_    0.529651 0.177895 0.455821 0.114966
H4    H     H_    0.468063 0.180617 0.450988 0.118786
H5    H     H_    0.968062 0.681188 0.049814 0.118876
H6    H     H_    0.029649 0.678408 0.045008 0.115013
H7    H     H_    0.031939 0.680628 0.950973 0.118744
H8    H     H_    0.970351 0.677899 0.955811 0.114988
C33   C     C_1   0.389260 0.249890 0.500019 -0.077764
C34   C     C_1   0.610740 0.249890 0.499981 -0.077674
C35   C     C_1   0.889260 0.749888 0.999982 -0.077688
C36   C     C_1   0.110740 0.749889 0.000019 -0.077764
C37   C     C_3   0.536630 0.249461 0.499868 0.096650
C38   C     C_3   0.463370 0.249462 0.500135 0.096729
C39   C     C_3   0.036630 0.749460 0.000138 0.096740
C40   C     C_3   0.963370 0.749458 0.999870 0.096670
C41   C     C_3   0.478640 0.305854 0.501092 -0.362454
C42   C     C_3   0.521360 0.305838 0.498246 -0.362264
C43   C     C_3   0.978639 0.805835 0.998259 -0.362428
C44   C     C_3   0.021360 0.805852 0.001108 -0.362379
C45   C     C_1   0.422553 0.249731 0.500082 0.006502
C46   C     C_1   0.577447 0.249732 0.499919 0.006548
C47   C     C_1   0.922553 0.749728 0.999920 0.006530
C48   C     C_1   0.077447 0.749731 0.000084 0.006505
H9    H     H_    0.532671 0.329149 0.531022 0.209565
H10   H     H_    0.469681 0.325886 0.537324 0.214023
H11   H     H_    0.467328 0.328777 0.468042 0.209598
H12   H     H_    0.530319 0.325441 0.461779 0.214155
H13   H     H_    0.030317 0.825874 0.037346 0.214056
H14   H     H_    0.967327 0.829140 0.031039 0.209532
H15   H     H_    0.969681 0.825444 0.961795 0.214074
H16   H     H_    0.032672 0.828784 0.968065 0.209564
C49   C     C_R   0.225503 0.500970 0.710125 -0.226734
C50   C     C_R   0.776294 0.498593 0.712505 -0.226731
C51   C     C_R   0.775517 0.499679 0.288583 -0.226651
C52   C     C_R   0.224017 0.499040 0.287943 -0.226742
C53   C     C_R   0.723776 0.998695 0.212403 -0.226613
C54   C     C_R   0.275238 0.000046 0.211050 -0.226548
C55   C     C_R   0.275731 0.999391 0.788293 -0.226901
C56   C     C_R   0.725352 0.000787 0.789691 -0.226857
H17   H     H_    0.205622 0.502576 0.678664 0.189544
H18   H     H_    0.797667 0.498229 0.683015 0.189515
H19   H     H_    0.796246 0.500213 0.318972 0.189551
H20   H     H_    0.202904 0.499049 0.317806 0.189506
H21   H     H_    0.702462 0.998417 0.182827 0.189585
H22   H     H_    0.295735 0.000886 0.180354 0.189628
H23   H     H_    0.296637 0.999689 0.818444 0.189436
H24   H     H_    0.705343 0.002239 0.820999 0.189464
C57   C     C_R   0.251156 0.460446 0.712257 0.008003
C58   C     C_R   0.748720 0.460606 0.712097 0.008039
C59   C     C_R   0.748772 0.460535 0.287832 0.008055
C60   C     C_R   0.251257 0.460574 0.287871 0.008046
C61   C     C_R   0.751275 0.960598 0.212104 0.008015
C62   C     C_R   0.248793 0.960508 0.212195 0.007983
C63   C     C_R   0.248759 0.960553 0.787850 0.008062
C64   C     C_R   0.751168 0.960460 0.787757 0.008082
C65   C     C_R   0.277035 0.458235 0.753098 0.147763
C66   C     C_R   0.720899 0.460957 0.750372 0.148079
C67   C     C_R   0.721789 0.459718 0.248387 0.147870
C68   C     C_R   0.278739 0.460440 0.249110 0.147921
C69   C     C_R   0.779018 0.960838 0.250492 0.147981
C70   C     C_R   0.222114 0.959292 0.252039 0.147818
C71   C     C_R   0.221548 0.960044 0.748714 0.147950
C72   C     C_R   0.777212 0.958449 0.747116 0.147773
C73   C     C_R   0.778833 0.999839 0.289272 0.115378
C74   C     C_R   0.222292 0.998305 0.290808 0.115184
C75   C     C_R   0.221729 0.999051 0.709940 0.115197
C76   C     C_R   0.777038 0.997467 0.708352 0.115051
C77   C     C_R   0.276861 0.497255 0.791860 0.115005
C78   C     C_R   0.721084 0.499959 0.789152 0.115320
C79   C     C_R   0.721969 0.498729 0.209616 0.115241
C80   C     C_R   0.278555 0.499444 0.210332 0.115324
C81   C     C_R   0.750901 0.038094 0.289132 -0.021179
C82   C     C_R   0.249153 0.038026 0.289200 -0.021188
C83   C     C_R   0.249125 0.038060 0.710833 -0.021189
C84   C     C_R   0.750817 0.037990 0.710762 -0.021132
C85   C     C_R   0.250807 0.537979 0.789248 -0.021225
C86   C     C_R   0.749093 0.538102 0.789125 -0.021122
C87   C     C_R   0.749135 0.538048 0.210821 -0.021086
C88   C     C_R   0.250887 0.538076 0.210849 -0.021204
C89   C     C_R   0.723419 0.037315 0.250555 0.163778
C90   C     C_R   0.275581 0.038687 0.249182 0.163707
C91   C     C_R   0.276080 0.038022 0.750151 0.163795
C92   C     C_R   0.725017 0.039438 0.751570 0.163661
C93   C     C_R   0.225171 0.539624 0.748244 0.163687
C94   C     C_R   0.776651 0.537213 0.750658 0.163814
C95   C     C_R   0.775863 0.538315 0.250446 0.163707
C96   C     C_R   0.223664 0.537666 0.249796 0.163791
C97   C     C_1   0.250487 0.421331 0.672047 0.030037
C98   C     C_1   0.749446 0.421413 0.671965 0.030224
C99   C     C_1   0.749474 0.421377 0.327999 0.030087
C100  C     C_1   0.250541 0.421397 0.328019 0.030146
C101  C     C_1   0.750551 0.921409 0.171969 0.030256
C102  C     C_1   0.249485 0.921363 0.172015 0.030166
C103  C     C_1   0.249468 0.921386 0.828008 0.030066
C104  C     C_1   0.750494 0.921339 0.827960 0.029924
C105  C     C_1   0.750385 0.078126 0.328508 0.055831
C106  C     C_1   0.249644 0.078092 0.328542 0.055581
C107  C     C_1   0.249628 0.078109 0.671475 0.055759
C108  C     C_1   0.750339 0.078073 0.671439 0.055474
C109  C     C_1   0.250333 0.578067 0.828567 0.055453
C110  C     C_1   0.749611 0.578130 0.828503 0.055850
C111  C     C_1   0.749634 0.578103 0.171470 0.055636
C112  C     C_1   0.250377 0.578116 0.171483 0.055815
C113  C     C_1   0.750112 0.111460 0.361528 -0.078721
C114  C     C_1   0.249901 0.111447 0.361542 -0.079084
C115  C     C_1   0.249894 0.111454 0.638465 -0.078742
C116  C     C_1   0.750092 0.111439 0.638450 -0.079188
C117  C     C_1   0.250089 0.611437 0.861552 -0.079161
C118  C     C_1   0.749886 0.611462 0.861526 -0.078718
C119  C     C_1   0.749897 0.611452 0.138463 -0.079086
C120  C     C_1   0.250108 0.611456 0.138468 -0.078701
C121  C     C_1   0.250118 0.388446 0.638585 -0.098563
C122  C     C_1   0.749855 0.388477 0.638554 -0.098437
C123  C     C_1   0.749866 0.388464 0.361432 -0.098572
C124  C     C_1   0.250140 0.388471 0.361439 -0.098532
C125  C     C_1   0.750144 0.888476 0.138556 -0.098417
C126  C     C_1   0.249871 0.888458 0.138573 -0.098460
C127  C     C_1   0.249864 0.888467 0.861435 -0.098588
C128  C     C_1   0.750121 0.888449 0.861418 -0.098713
C129  C     C_R   0.019458 0.300337 0.500191 0.140665
C130  C     C_R   0.980542 0.300338 0.500191 0.140652
C131  C     C_R   0.519458 0.800297 0.002067 0.140658
C132  C     C_R   0.480543 0.800297 0.002067 0.140688
C133  C     C_R   0.038509 0.252550 0.500016 0.050019
C134  C     C_R   0.961491 0.252550 0.500016 0.050023
C135  C     C_R   0.538509 0.752547 0.000184 0.050003
C136  C     C_R   0.461491 0.752547 0.000185 0.050026
C137  C     C_R   0.019171 0.205532 0.499844 -0.187318
C138  C     C_R   0.980829 0.205532 0.499844 -0.187331
C139  C     C_R   0.519171 0.705564 0.998340 -0.187191
C140  C     C_R   0.480829 0.705564 0.998341 -0.187342
H25   H     H_    0.033800 0.168753 0.499709 0.176339
H26   H     H_    0.966199 0.168753 0.499708 0.176333
H27   H     H_    0.533800 0.668814 0.996892 0.176388
H28   H     H_    0.466199 0.668814 0.996892 0.176313
C141  C     C_1   0.078031 0.251012 0.500008 0.008316
C142  C     C_1   0.921969 0.251012 0.500008 0.008290
C143  C     C_1   0.578031 0.751010 0.000101 0.008398
C144  C     C_1   0.421969 0.751011 0.000102 0.008301
C145  C     C_1   0.888856 0.250185 0.500003 -0.094623
C146  C     C_1   0.111144 0.250185 0.500004 -0.094596
C147  C     C_1   0.388856 0.750185 0.000043 -0.094637
C148  C     C_1   0.611144 0.750185 0.000042 -0.094502
I1    I     I_    0.549646 0.241140 0.379665 -0.213294
I2    I     I_    0.453048 0.252395 0.379797 -0.216097
I3    I     I_    0.450354 0.242557 0.620428 -0.214287
I4    I     I_    0.546952 0.253816 0.620163 -0.216642
I5    I     I_    0.046949 0.752428 0.879800 -0.216825
I6    I     I_    0.950352 0.741152 0.879665 -0.213932
I7    I     I_    0.953049 0.753789 0.120166 -0.216103
I8    I     I_    0.049647 0.742525 0.120429 -0.213598
I9    I     I_    0.680542 0.093525 0.247863 -0.245258
I10   I     I_    0.316814 0.097147 0.244235 -0.246471
I11   I     I_    0.318134 0.095390 0.754000 -0.245238
I12   I     I_    0.684766 0.099128 0.757748 -0.247429
I13   I     I_    0.185175 0.599623 0.741757 -0.246396
I14   I     I_    0.819646 0.593252 0.748138 -0.245202
I15   I     I_    0.817564 0.596159 0.254777 -0.247359
I16   I     I_    0.181191 0.594453 0.253065 -0.245390
I17   I     I_    0.315961 0.395788 0.755360 -0.196512
I18   I     I_    0.679057 0.402359 0.748777 -0.196712
I19   I     I_    0.681205 0.399365 0.248221 -0.197375
I20   I     I_    0.320073 0.401116 0.249976 -0.196574
I21   I     I_    0.820747 0.902075 0.249064 -0.196790
I22   I     I_    0.181985 0.898341 0.252803 -0.196827
I23   I     I_    0.180621 0.900154 0.749014 -0.196370
I24   I     I_    0.816387 0.896301 0.745153 -0.197162
I25   I     I_    0.820400 0.001658 0.348324 -0.214737
I26   I     I_    0.182319 0.997948 0.352040 -0.214154
I27   I     I_    0.180957 0.999752 0.649770 -0.214448
I28   I     I_    0.816059 0.995918 0.645928 -0.214103
I29   I     I_    0.315635 0.495408 0.854582 -0.213836
I30   I     I_    0.679400 0.501947 0.848033 -0.215482
I31   I     I_    0.681541 0.498969 0.148982 -0.214600
I32   I     I_    0.319729 0.500704 0.150721 -0.214036
I33   I     I_    0.950109 0.371585 0.500453 -0.224050
I34   I     I_    0.049891 0.371585 0.500451 -0.223983
I35   I     I_    0.450109 0.871490 0.004865 -0.224024
I36   I     I_    0.549891 0.871490 0.004866 -0.224051

loop_
_geom_bond_atom_site_label_1
_geom_bond_atom_site_label_2
_geom_bond_distance
_ccdc_geom_bond_type
Zn6   O47   1.917532 S    
C135  C139  1.397013 A    
C60   C68   1.408652 A    
C25   C26   1.572852 S    
C134  C142  1.433555 S    
C40   C47   1.479945 S    
Zn2   O2    1.923131 S    
O13   C9    1.272234 A    
C133  C141  1.433555 S    
Zn14  O2    1.923447 S    
C105  C113  1.205580 T    
C27   C28   1.572854 S    
Zn16  O35   1.909782 S    
C111  C119  1.205580 T    
C56   H24   1.083744 S    
C82   C90   1.405453 A    
C103  C127  1.205489 T    
C29   C30   1.572853 S    
C26   C38   1.562453 S    
C55   C91   1.394880 A    
C102  C126  1.205487 T    
Zn13  O49   1.917932 S    
O44   C21   1.270948 A    
Zn15  O33   1.909781 S    
Zn15  O3    1.923452 S    
C31   H8    1.113452 S    
C72   I24   2.137951 S    
C142  C145  1.200802 T    
Zn11  O3    1.923444 S    
O26   C7    1.271734 A    
C56   C92   1.394875 A    
Zn7   O10   1.910713 S    
O41   C21   1.271021 A    
C141  C146  1.200802 T    
C78   C86   1.411443 A    
C15   C119  1.433620 S    
O33   C16   1.271895 A    
C53   H21   1.083743 S    
C64   C104  1.441484 S    
C91   I11   2.123270 S    
O50   C18   1.268732 A    
C36   C48   1.207159 T    
Zn12  O27   1.910800 S    
C76   I28   2.138859 S    
C27   I2    2.178978 S    
C30   I7    2.178981 S    
C52   H20   1.083738 S    
C131  C135  1.409003 A    
C11   C115  1.433617 S    
O40   C20   1.268234 A    
C87   C95   1.405454 A    
C130  C134  1.409003 A    
C8    C127  1.433874 S    
C73   C81   1.411443 A    
C3    C124  1.433875 S    
C50   C58   1.397377 A    
C129  C133  1.409001 A    
C140  H28   1.083840 S    
C43   H14   1.111738 S    
C85   C93   1.405451 A    
Zn3   O2    1.923129 S    
C76   C84   1.411434 A    
Zn8   O20   1.910652 S    
C109  C117  1.205581 T    
C50   C94   1.394875 A    
Zn12  O26   1.910804 S    
C88   C96   1.405454 A    
C65   C77   1.413150 A    
C71   I23   2.137964 S    
C70   C74   1.413146 A    
C38   C45   1.479949 S    
C19   C147  1.425858 S    
C37   C46   1.479949 S    
C131  C132  1.410994 A    
C26   H1    1.113450 S    
C69   I21   2.137973 S    
C66   I18   2.137974 S    
Zn5   O17   1.910650 S    
O47   C24   1.270950 A    
Zn16  O34   1.909782 S    
C43   H15   1.112107 S    
Zn10  O22   1.910804 S    
C138  H26   1.083837 S    
C143  C148  1.200803 T    
Zn16  O52   1.917935 S    
C42   H9    1.111739 S    
C29   C39   1.562456 S    
C26   I3    2.178161 S    
C49   C93   1.394878 A    
Zn8   O45   1.917532 S    
C99   C123  1.205489 T    
C37   C42   1.551538 S    
C80   C88   1.411438 A    
O27   C6    1.271730 A    
C59   C99   1.441483 S    
Zn15  O51   1.917932 S    
C108  C116  1.205578 T    
C52   C96   1.394879 A    
O39   C19   1.268233 A    
Zn8   O9    1.910712 S    
C74   I26   2.138857 S    
C79   C87   1.411435 A    
C129  I34   2.137763 S    
C95   I15   2.123250 S    
C32   C39   1.562615 S    
C42   H12   1.112106 S    
C112  C120  1.205581 T    
C84   C108  1.442826 S    
C31   I6    2.178161 S    
O11   C7    1.271350 A    
O15   C11   1.272233 A    
C132  C136  1.409003 A    
C51   C95   1.394873 A    
C104  C128  1.205487 T    
O34   C15   1.271896 A    
C54   C90   1.394872 A    
C29   I8    2.178161 S    
Zn7   O4    1.923129 S    
C68   C80   1.413149 A    
C38   C41   1.551540 S    
Zn10  O2    1.923449 S    
C74   C82   1.411437 A    
Zn8   O3    1.923129 S    
C82   C106  1.442823 S    
O24   C1    1.271727 A    
Zn4   O16   1.910652 S    
C81   C105  1.442824 S    
C44   H13   1.112107 S    
C33   C45   1.207159 T    
C40   C43   1.551541 S    
O7    C3    1.271355 A    
C72   C76   1.413146 A    
C77   I29   2.138852 S    
Zn14  O50   1.917935 S    
Zn14  O30   1.909782 S    
C32   I5    2.178977 S    
C67   C79   1.413147 A    
Zn1   O44   1.917532 S    
C31   C40   1.562452 S    
O38   C18   1.268234 A    
C49   C57   1.397371 A    
O19   C15   1.272230 A    
Zn2   O43   1.917532 S    
C66   C78   1.413148 A    
C30   C40   1.562616 S    
C131  I36   2.137760 S    
C63   C71   1.408647 A    
C134  C138  1.397009 A    
C132  I35   2.137760 S    
C35   C47   1.207159 T    
C21   C34   1.436015 S    
C70   I22   2.137956 S    
C144  C147  1.200803 T    
C133  C137  1.397011 A    
Zn6   O18   1.910649 S    
Zn5   O48   1.917532 S    
O5    C1    1.271356 A    
Zn10  O23   1.910800 S    
O43   C22   1.271023 A    
C59   C67   1.408653 A    
C23   C36   1.436015 S    
Zn4   O41   1.917532 S    
C101  C125  1.205490 T    
C10   C114  1.433617 S    
Zn7   O46   1.917532 S    
Zn9   O24   1.910801 S    
C137  C138  1.390197 A    
C25   I4    2.178984 S    
C9    C113  1.433616 S    
C106  C114  1.205579 T    
C50   H18   1.083742 S    
C129  C130  1.410998 A    
C41   H11   1.111738 S    
C65   I17   2.137951 S    
C30   H5    1.113427 S    
Zn6   O11   1.910715 S    
C55   C63   1.397376 A    
C71   C75   1.413149 A    
Zn16  O4    1.923447 S    
C135  C143  1.433552 S    
O14   C10   1.272230 A    
Zn12  O4    1.923449 S    
O32   C9    1.271897 A    
C107  C115  1.205579 T    
C73   I25   2.138848 S    
Zn5   O12   1.910714 S    
C53   C61   1.397376 A    
Zn11  O28   1.910801 S    
C25   C37   1.562612 S    
Zn15  O36   1.909781 S    
C130  I33   2.137763 S    
Zn3   O15   1.910651 S    
C90   I10   2.123254 S    
O35   C14   1.271897 A    
C83   C107  1.442824 S    
Zn12  O40   1.917992 S    
C22   C33   1.436015 S    
C97   C121  1.205484 T    
O42   C22   1.270950 A    
Zn4   O1    1.923129 S    
C55   H23   1.083739 S    
C93   I13   2.123247 S    
C12   C116  1.433615 S    
C56   C64   1.397370 A    
C39   C44   1.551540 S    
C27   C38   1.562616 S    
C98   C122  1.205487 T    
O36   C13   1.271895 A    
O52   C20   1.268732 A    
C62   C102  1.441482 S    
C85   C109  1.442821 S    
C28   C37   1.562453 S    
O21   C4    1.271732 A    
Zn9   O37   1.917998 S    
C29   H6    1.113453 S    
C96   I16   2.123268 S    
O12   C8    1.271353 A    
C28   I1    2.178166 S    
C136  C140  1.397010 A    
Zn11  O39   1.917998 S    
C27   H4    1.113428 S    
O8    C4    1.271349 A    
Zn2   O7    1.910715 S    
C83   C91   1.405450 A    
Zn9   O21   1.910805 S    
C41   H10   1.112107 S    
Zn9   O1    1.923444 S    
C84   C92   1.405452 A    
O22   C3    1.271730 A    
C89   I9    2.123277 S    
C32   H7    1.113428 S    
C39   C48   1.479949 S    
C58   C66   1.408651 A    
C110  C118  1.205582 T    
O16   C12   1.272234 A    
C44   H16   1.111736 S    
C2    C121  1.433873 S    
Zn7   O19   1.910651 S    
C62   C70   1.408652 A    
C1    C122  1.433870 S    
O20   C16   1.272234 A    
C87   C111  1.442826 S    
C88   C112  1.442824 S    
C80   I32   2.138847 S    
C25   H2    1.113427 S    
C20   C148  1.425858 S    
Zn13  O32   1.909781 S    
C139  H27   1.083840 S    
C43   C44   1.550695 S    
C16   C120  1.433619 S    
C24   C35   1.436012 S    
O49   C17   1.268733 A    
Zn14  O31   1.909782 S    
Zn5   O3    1.923131 S    
Zn6   O4    1.923131 S    
O29   C12   1.271897 A    
C57   C97   1.441485 S    
O48   C23   1.271025 A    
C31   C32   1.572851 S    
Zn13  O1    1.923452 S    
Zn2   O14   1.910649 S    
C86   C110  1.442822 S    
C60   C100  1.441484 S    
C41   C42   1.550695 S    
C34   C46   1.207156 T    
O25   C8    1.271729 A    
Zn13  O29   1.909781 S    
Zn4   O5    1.910712 S    
C54   C62   1.397371 A    
Zn1   O13   1.910650 S    
O30   C11   1.271892 A    
O17   C13   1.272234 A    
C7    C128  1.433873 S    
C54   H22   1.083744 S    
C51   C59   1.397368 A    
C94   I14   2.123277 S    
C6    C125  1.433870 S    
C51   H19   1.083743 S    
O10   C6    1.271355 A    
O23   C2    1.271734 A    
C100  C124  1.205489 T    
C5    C126  1.433868 S    
Zn11  O25   1.910805 S    
C75   C83   1.411442 A    
O9    C5    1.271349 A    
C92   I12   2.123249 S    
C137  H25   1.083839 S    
O28   C5    1.271734 A    
Zn10  O38   1.917992 S    
C77   C85   1.411435 A    
C136  C144  1.433555 S    
C61   C101  1.441481 S    
C79   I31   2.138851 S    
C17   C145  1.425858 S    
O46   C24   1.271019 A    
C81   C89   1.405454 A    
C58   C98   1.441481 S    
C86   C94   1.405455 A    
Zn3   O42   1.917532 S    
C75   I27   2.138844 S    
C4    C123  1.433870 S    
C53   C89   1.394875 A    
Zn1   O1    1.923131 S    
C64   C72   1.408653 A    
Zn1   O8    1.910714 S    
C67   I19   2.137952 S    
C13   C117  1.433615 S    
C28   H3    1.113451 S    
C61   C69   1.408652 A    
C139  C140  1.390193 A    
C68   I20   2.137965 S    
Zn3   O6    1.910713 S    
O37   C17   1.268231 A    
C49   H17   1.083739 S    
O18   C14   1.272230 A    
O31   C10   1.271897 A    
C52   C60   1.397377 A    
C57   C65   1.408651 A    
O6    C2    1.271350 A    
C63   C103  1.441487 S    
C69   C73   1.413148 A    
O45   C23   1.270947 A    
O51   C19   1.268731 A    
C18   C146  1.425858 S    
C14   C118  1.433616 S    
C78   I30   2.138846 S    
