data_str_m3_o20_o25_f0_nbo.sym.141
_audit_creation_date              2012-12-10T18:16:11-0500
_audit_creation_method            fapswitch 2.2
_symmetry_space_group_name_H-M    P1
_symmetry_Int_Tables_number       1
_space_group_crystal_system       triclinic
_cell_length_a                    42.336875
_cell_length_b                    29.20824
_cell_length_c                    29.202781
_cell_angle_alpha                 90.000405
_cell_angle_beta                  133.793517
_cell_angle_gamma                 90.005294
_cell_volume                      26066.8444296

loop_
_atom_site_label
_atom_site_type_symbol
_atom_type_description
_atom_site_fract_x
_atom_site_fract_y
_atom_site_fract_z
_atom_type_partial_charge
C1    C     C_R   0.499970 0.586677 0.499991 0.909990
C2    C     C_1   0.834598 0.000544 0.337872 0.094052
C3    C     C_3   0.760493 0.961928 0.246299 0.292256
C4    C     C_1   0.372569 0.500127 0.373830 -0.194272
C5    C     C_1   0.872570 0.000268 0.373829 -0.194238
C6    C     C_1   0.121153 0.500036 0.123712 -0.178737
C7    C     C_1   0.621154 0.000056 0.123687 -0.178753
C8    C     C_3   0.261730 0.500567 0.312184 -0.119421
C9    C     C_3   0.761718 0.002261 0.312103 -0.119456
C10   C     C_3   0.289104 0.500320 0.294916 -0.141556
C11   C     C_3   0.789106 0.000660 0.294889 -0.141594
C12   C     C_3   0.245959 0.605896 0.192125 0.104950
C13   C     C_1   0.159097 0.500124 0.164489 0.139892
C14   C     C_3   0.265856 0.641301 0.180111 -0.845574
C15   C     C_3   0.246189 0.394975 0.191854 0.116462
C16   C     C_3   0.266203 0.349058 0.199253 -0.849564
C17   C     C_3   0.745775 0.104202 0.188580 0.104915
C18   C     C_3   0.765609 0.138611 0.175392 -0.845492
C19   C     C_3   0.746408 0.893375 0.195399 0.116826
C20   C     C_3   0.766490 0.847080 0.204457 -0.849770
C21   C     C_3   0.245349 0.606205 0.312745 0.091682
C22   C     C_3   0.224687 0.652723 0.301010 -0.831131
C23   C     C_3   0.245491 0.393909 0.312096 0.099378
C24   C     C_1   0.659099 0.000213 0.164445 0.139860
C25   C     C_3   0.224947 0.346780 0.296754 -0.831247
C26   C     C_3   0.745137 0.108351 0.309097 0.091715
C27   C     C_3   0.724383 0.155086 0.295793 -0.831159
C28   C     C_3   0.745690 0.896143 0.315602 0.099564
C29   C     C_3   0.725278 0.849126 0.301769 -0.831273
C30   C     C_3   0.245325 0.500899 0.130136 0.117827
C31   C     C_3   0.224420 0.491292 0.062912 -0.851378
C32   C     C_3   0.745363 0.997313 0.130175 0.117860
C33   C     C_3   0.724499 0.986173 0.063316 -0.851372
C34   C     C_3   0.282191 0.500172 0.380546 -0.391769
C35   C     C_1   0.499945 0.637260 0.499940 -0.220756
C36   C     C_3   0.247125 0.499960 0.383024 -0.304401
C37   C     C_3   0.267997 0.500468 0.451393 -0.908742
C38   C     C_3   0.782159 0.003419 0.380442 -0.391761
C39   C     C_3   0.747077 0.004338 0.382878 -0.304418
C40   C     C_3   0.767929 0.006369 0.451196 -0.908739
C41   C     C_1   0.499947 0.362740 0.499941 -0.220678
C42   C     C_1   0.999945 0.137260 0.499940 -0.220886
C43   C     C_1   0.999947 0.862740 0.499941 -0.220554
C44   C     C_1   0.499929 0.679398 0.499917 0.004660
C45   C     C_1   0.499935 0.320602 0.499922 0.004698
C46   C     C_1   0.999929 0.179398 0.499917 0.004590
C47   C     C_R   0.499970 0.413322 0.499990 0.909755
C48   C     C_1   0.999935 0.820602 0.499922 0.004768
C49   C     C_1   0.499920 0.729133 0.499911 0.006400
C50   C     C_1   0.499931 0.270867 0.499920 0.006436
C51   C     C_1   0.999921 0.229133 0.499911 0.006358
C52   C     C_1   0.999931 0.770867 0.499920 0.006483
C53   C     C_1   0.499922 0.771270 0.499918 0.005921
C54   C     C_1   0.499935 0.228730 0.499931 0.005934
C55   C     C_1   0.999922 0.271270 0.499919 0.005892
C56   C     C_1   0.999935 0.728730 0.499931 0.005967
C57   C     C_1   0.499930 0.821006 0.499937 0.004082
C58   C     C_R   0.999970 0.086677 0.499990 0.909986
C59   C     C_1   0.499946 0.178994 0.499952 0.004072
C60   C     C_1   0.999930 0.321006 0.499937 0.004062
C61   C     C_1   0.999946 0.678994 0.499952 0.004094
C62   C     C_1   0.499940 0.863144 0.499956 -0.214339
C63   C     C_1   0.499955 0.136856 0.499970 -0.214357
C64   C     C_1   0.999940 0.363144 0.499957 -0.214353
C65   C     C_1   0.999955 0.636856 0.499970 -0.214342
C66   C     C_R   0.417113 0.499952 0.417393 0.941764
C67   C     C_R   0.917113 0.999910 0.417393 0.941759
C68   C     C_1   0.635840 0.499998 0.635390 -0.221630
C69   C     C_R   0.999970 0.913322 0.499990 0.909753
C70   C     C_1   0.135840 0.999998 0.635390 -0.221631
C71   C     C_1   0.677113 0.499997 0.676633 0.016228
C72   C     C_1   0.177113 0.999997 0.676633 0.016228
C73   C     C_1   0.726259 0.499995 0.725857 0.002815
C74   C     C_1   0.226259 0.999995 0.725857 0.002815
C75   C     C_1   0.767533 0.499993 0.767232 0.002792
C76   C     C_1   0.267533 0.999993 0.767232 0.002792
C77   C     C_1   0.816679 0.499992 0.816516 0.016125
C78   C     C_1   0.316679 0.999992 0.816516 0.016125
C79   C     C_1   0.857953 0.499993 0.857906 -0.221459
C80   C     C_3   0.204633 0.500242 0.211457 -0.124336
C81   C     C_1   0.357953 0.999993 0.857906 -0.221458
C82   C     C_R   0.994881 0.500000 0.081699 0.913273
C83   C     C_R   0.494881 0.000000 0.081699 0.913261
C84   C     C_R   0.076705 0.500005 0.075725 0.937620
C85   C     C_R   0.576705 0.000006 0.075725 0.937632
C86   C     C_R   0.992986 0.500000 0.906357 0.906502
C87   C     C_R   0.492986 1.000000 0.906357 0.906500
C88   C     C_R   0.907987 0.499997 0.908065 0.888850
C89   C     C_R   0.407987 0.999997 0.908065 0.888850
C90   C     C_R   0.585807 0.500000 0.585657 0.890111
C91   C     C_3   0.704634 0.000438 0.211406 -0.124403
C92   C     C_R   0.085807 1.000000 0.585657 0.890110
C93   C     C_R   0.499107 1.000000 0.412915 0.897750
C94   C     C_R   0.999108 0.500000 0.412915 0.897748
C95   C     C_R   0.499954 0.913727 0.499980 0.897439
C96   C     C_R   0.499959 0.086273 0.499985 0.897422
C97   C     C_R   0.999954 0.413727 0.499980 0.897433
C98   C     C_R   0.999959 0.586273 0.499985 0.897426
C99   C     C_R   0.500740 1.000000 0.587029 0.897177
C100  C     C_R   0.000740 0.500000 0.587029 0.897177
C101  C     C_1   0.995669 0.500000 0.133057 -0.218769
C102  C     C_3   0.232414 0.499902 0.195206 0.241560
C103  C     C_1   0.495669 0.000000 0.133056 -0.218771
C104  C     C_1   0.996338 0.500001 0.175857 0.006219
C105  C     C_1   0.496338 0.000001 0.175857 0.006217
C106  C     C_1   0.997113 0.500000 0.226355 0.007578
C107  C     C_1   0.497112 0.000001 0.226355 0.007578
C108  C     C_1   0.497732 0.000000 0.269106 0.006677
C109  C     C_1   0.997733 0.500000 0.269106 0.006676
C110  C     C_1   0.498389 0.000000 0.319487 0.004408
C111  C     C_1   0.998389 0.500000 0.319487 0.004407
C112  C     C_1   0.498827 0.000000 0.362060 -0.214175
C113  C     C_3   0.732429 0.998762 0.195210 0.241557
C114  C     C_1   0.998827 0.500000 0.362060 -0.214176
C115  C     C_1   0.994032 0.499999 0.856807 -0.218677
C116  C     C_1   0.494032 1.000000 0.856806 -0.218678
C117  C     C_3   0.233128 0.538198 0.261377 0.349243
C118  C     C_3   0.233189 0.462705 0.261939 0.352348
C119  C     C_3   0.733052 0.039112 0.260042 0.349183
C120  C     C_3   0.733254 0.963675 0.263141 0.352458
C121  C     C_1   0.995246 0.499999 0.815886 0.005301
C122  C     C_1   0.495246 0.999999 0.815886 0.005295
C123  C     C_1   0.996851 0.499999 0.767761 0.006594
C124  C     C_1   0.334596 0.500263 0.337883 0.094098
C125  C     C_1   0.496850 0.999999 0.767760 0.006587
C126  C     C_1   0.498199 0.999999 0.726981 0.005985
C127  C     C_1   0.998199 0.499999 0.726981 0.005989
C128  C     C_1   0.499624 0.999999 0.678669 0.004179
C129  C     C_1   0.999624 0.499999 0.678669 0.004181
C130  C     C_1   0.500484 1.000000 0.637384 -0.214706
C131  C     C_1   0.000484 0.500000 0.637384 -0.214704
C132  C     C_3   0.260328 0.538007 0.244371 0.291485
C133  C     C_3   0.260414 0.462299 0.245039 0.292220
C134  C     C_3   0.760266 0.037577 0.243085 0.291503
H1    H     H_    0.231199 0.624250 0.206684 0.178696
H2    H     H_    0.292068 0.353911 0.198928 0.265553
H3    H     H_    0.730979 0.123452 0.202501 0.178671
H4    H     H_    0.719270 0.085508 0.143779 0.173762
H5    H     H_    0.780209 0.120487 0.160303 0.255839
H6    H     H_    0.739839 0.162306 0.137008 0.212851
H7    H     H_    0.791435 0.158830 0.218839 0.264792
H8    H     H_    0.731578 0.907300 0.148766 0.176114
H9    H     H_    0.719962 0.887817 0.194395 0.179528
H10   H     H_    0.781013 0.831904 0.250421 0.258785
H11   H     H_    0.740873 0.823623 0.165447 0.211756
H12   H     H_    0.219418 0.587845 0.146705 0.173846
H13   H     H_    0.792406 0.851078 0.204095 0.265572
H14   H     H_    0.273498 0.611111 0.317306 0.168148
H15   H     H_    0.257890 0.593219 0.358428 0.152740
H16   H     H_    0.197455 0.649194 0.298629 0.265007
H17   H     H_    0.249563 0.676451 0.340297 0.210574
H18   H     H_    0.211730 0.667420 0.255684 0.249412
H19   H     H_    0.257625 0.404752 0.358342 0.148792
H20   H     H_    0.273961 0.390601 0.317161 0.176805
H21   H     H_    0.212876 0.334353 0.251000 0.252609
H22   H     H_    0.249659 0.322253 0.334789 0.209231
H23   H     H_    0.280420 0.624103 0.164421 0.255854
H24   H     H_    0.197134 0.348399 0.293278 0.265212
H25   H     H_    0.773278 0.112566 0.313506 0.168157
H26   H     H_    0.757702 0.096445 0.355198 0.152724
H27   H     H_    0.697159 0.152290 0.293524 0.264989
H28   H     H_    0.749213 0.179310 0.334271 0.210584
H29   H     H_    0.711395 0.168723 0.249988 0.249415
H30   H     H_    0.757720 0.908052 0.361427 0.148782
H31   H     H_    0.774223 0.892223 0.320905 0.176751
H32   H     H_    0.713331 0.835639 0.256502 0.252596
H33   H     H_    0.750032 0.825098 0.340652 0.209213
H34   H     H_    0.240130 0.665436 0.142538 0.212867
H35   H     H_    0.697398 0.851390 0.298091 0.265245
H36   H     H_    0.271672 0.475243 0.162160 0.176373
H37   H     H_    0.260462 0.535375 0.143890 0.180019
H38   H     H_    0.198675 0.517134 0.029829 0.264730
H39   H     H_    0.249635 0.492969 0.060882 0.213803
H40   H     H_    0.209487 0.456622 0.047887 0.256026
H41   H     H_    0.771774 0.971924 0.163089 0.176305
H42   H     H_    0.760412 0.031768 0.142742 0.180007
H43   H     H_    0.698692 0.011698 0.029338 0.264731
H44   H     H_    0.749720 0.987045 0.061259 0.213800
H45   H     H_    0.291721 0.660896 0.224230 0.264784
H46   H     H_    0.709654 0.951479 0.049484 0.256005
H47   H     H_    0.288966 0.469766 0.477168 0.264127
H48   H     H_    0.288135 0.531817 0.476072 0.263868
H49   H     H_    0.242001 0.500199 0.451872 0.258908
H50   H     H_    0.225417 0.530206 0.357893 0.244992
H51   H     H_    0.226187 0.469091 0.358984 0.246081
H52   H     H_    0.303318 0.469429 0.405038 0.192670
H53   H     H_    0.303683 0.530585 0.405830 0.192621
H54   H     H_    0.788936 0.975862 0.477983 0.264103
H55   H     H_    0.788023 0.037873 0.474851 0.263889
H56   H     H_    0.231304 0.409967 0.145683 0.176188
H57   H     H_    0.741921 0.006898 0.451648 0.258907
H58   H     H_    0.725330 0.034430 0.356748 0.245000
H59   H     H_    0.726183 0.973357 0.359846 0.246054
H60   H     H_    0.803331 0.972831 0.405961 0.192699
H61   H     H_    0.803601 0.033971 0.404720 0.192588
H62   H     H_    0.219795 0.388591 0.190766 0.179489
H63   H     H_    0.280777 0.332825 0.244707 0.258801
H64   H     H_    0.240536 0.326085 0.159473 0.211736
O1    O     O_R   0.500400 0.563130 0.536080 -0.598325
O2    O     O_R   0.963990 0.500000 0.400890 -0.593683
O3    O     O_R   0.534410 1.000000 0.471310 -0.593996
O4    O     O_R   0.034410 0.500000 0.471310 -0.593996
O5    O     O_R   0.464750 0.936830 0.464780 -0.594065
O6    O     O_R   0.464750 0.063170 0.464780 -0.594055
O7    O     O_R   0.964750 0.436830 0.464780 -0.594074
O8    O     O_R   0.964750 0.563170 0.464780 -0.594043
O9    O     O_R   0.535170 0.936820 0.535200 -0.593746
O10   O     O_R   0.535170 0.063180 0.535200 -0.593768
O11   O     O_R   0.035170 0.436820 0.535200 -0.593745
O12   O     O_R   0.500400 0.436870 0.536080 -0.598384
O13   O     O_R   0.035170 0.563180 0.535200 -0.593771
O14   O     O_R   0.465520 0.000000 0.528690 -0.593941
O15   O     O_R   0.965520 0.500000 0.528690 -0.593941
O16   O     O_R   0.535930 0.000000 0.599110 -0.593683
O17   O     O_R   0.035930 0.500000 0.599110 -0.593681
O18   O     O_R   0.499540 0.563080 0.463930 -0.595535
O19   O     O_R   0.499540 0.436920 0.463930 -0.595680
O20   O     O_R   0.999540 0.063080 0.463930 -0.595461
O21   O     O_R   0.999540 0.936920 0.463930 -0.595759
O22   O     O_R   0.438030 0.500000 0.473700 -0.621089
O23   O     O_R   0.000400 0.063130 0.536080 -0.598340
O24   O     O_R   0.938030 1.000000 0.473700 -0.621081
O25   O     O_R   0.437170 0.500000 0.401550 -0.604696
O26   O     O_R   0.937170 0.000000 0.401550 -0.604697
O27   O     O_R   0.562760 0.500000 0.598450 -0.591972
O28   O     O_R   0.062760 0.000000 0.598450 -0.591973
O29   O     O_R   0.561900 0.500000 0.526300 -0.592330
O30   O     O_R   0.061900 1.000000 0.526300 -0.592329
O31   O     O_R   0.994600 0.535610 0.057840 -0.595648
O32   O     O_R   0.994600 0.464390 0.057840 -0.595673
O33   O     O_R   0.494600 0.035610 0.057840 -0.595654
O34   O     O_R   0.000400 0.936870 0.536080 -0.598364
O35   O     O_R   0.494600 0.964390 0.057840 -0.595677
O36   O     O_R   0.056200 0.535620 0.056290 -0.609167
O37   O     O_R   0.056200 0.464380 0.056290 -0.609210
O38   O     O_R   0.556200 0.035620 0.056290 -0.609088
O39   O     O_R   0.556200 0.964380 0.056290 -0.609284
O40   O     O_R   0.993060 0.535640 0.930020 -0.597907
O41   O     O_R   0.993060 0.464360 0.930020 -0.597827
O42   O     O_R   0.493060 0.035640 0.930020 -0.597946
O43   O     O_R   0.493060 0.964360 0.930020 -0.597779
O44   O     O_3   0.279172 0.575749 0.240383 -0.615939
O45   O     O_R   0.931470 0.535630 0.931560 -0.592625
O46   O     O_3   0.279363 0.423882 0.242412 -0.617880
O47   O     O_3   0.779043 0.074614 0.237849 -0.615826
O48   O     O_3   0.779521 0.922880 0.244989 -0.617990
O49   O     O_3   0.213206 0.576297 0.262725 -0.606362
O50   O     O_3   0.213369 0.424895 0.264002 -0.608009
O51   O     O_3   0.713053 0.077827 0.260091 -0.606329
O52   O     O_3   0.713507 0.926531 0.266453 -0.608061
O53   O     O_3   0.212739 0.498962 0.131719 -0.619141
O54   O     O_3   0.712771 0.996385 0.131785 -0.619101
O55   O     O_R   0.931470 0.464370 0.931560 -0.592629
O56   O     O_R   0.431470 0.035630 0.931560 -0.592620
O57   O     O_R   0.431470 0.964370 0.931560 -0.592634
O58   O     O_R   0.463990 1.000000 0.400890 -0.593683
Zn1   Zn    Zn3+2 0.500540 0.500000 0.548170 0.962930
Zn2   Zn    Zn3+2 0.952950 0.500000 0.452980 0.967399
Zn3   Zn    Zn3+2 0.546980 1.000000 0.547020 0.967742
Zn4   Zn    Zn3+2 0.046980 0.500000 0.547020 0.967743
Zn5   Zn    Zn3+2 0.000540 1.000000 0.548170 0.962935
Zn6   Zn    Zn3+2 0.499390 0.500000 0.451830 0.974961
Zn7   Zn    Zn3+2 0.999390 0.000000 0.451830 0.974962
Zn8   Zn    Zn3+2 0.993830 0.547580 0.993940 0.974610
Zn9   Zn    Zn3+2 0.993830 0.452420 0.993940 0.974545
Zn10  Zn    Zn3+2 0.493830 0.047580 0.993940 0.974673
Zn11  Zn    Zn3+2 0.493830 0.952420 0.993940 0.974494
Zn12  Zn    Zn3+2 0.452950 0.000000 0.452980 0.967395

loop_
_geom_bond_atom_site_label_1
_geom_bond_atom_site_label_2
_ccdc_geom_bond_type
C44   C49   S    
O37   Zn9   S    
C22   H16   S    
C100  O17   A    
C115  C121  T    
O15   Zn2   S    
C25   H21   S    
C85   O38   A    
C20   H10   S    
C90   O27   A    
O40   Zn8   S    
C19   C20   S    
C10   C133  S    
C5    C67   S    
C42   C58   S    
C88   O45   A    
C104  C106  S    
C94   C114  S    
C100  C131  S    
C8    C118  S    
C57   C62   T    
C21   O49   S    
C7    C85   S    
C38   H61   S    
O12   Zn1   S    
C129  C131  T    
C32   H42   S    
C28   H30   S    
C26   C27   S    
C50   C54   T    
C113  O54   S    
C97   O11   A    
C28   C29   S    
C76   C78   S    
C65   C98   S    
O23   Zn5   S    
O5    Zn12  S    
C109  C111  S    
C27   H28   S    
C31   H39   S    
C38   C39   S    
C118  O50   S    
C96   O10   A    
C29   H32   S    
O1    Zn1   S    
C31   H38   S    
C95   O5    A    
C7    C24   T    
C37   H49   S    
C75   C77   S    
C30   O53   S    
C4    C124  T    
C15   O46   S    
C36   H51   S    
C42   C46   T    
C12   H12   S    
C23   O50   S    
C34   H52   S    
C117  C132  S    
C28   O52   S    
C30   H36   S    
C66   O22   A    
C27   H29   S    
C22   H17   S    
O56   Zn10  S    
C40   H55   S    
C83   O35   A    
C62   C95   S    
C12   H1    S    
C31   H40   S    
C68   C90   S    
C107  C108  T    
O43   Zn11  S    
C26   H26   S    
C17   H4    S    
C36   H50   S    
C3    O48   S    
C21   H15   S    
C93   O3    A    
C43   C48   T    
C134  O47   S    
C85   O39   A    
C14   H45   S    
O30   Zn7   S    
C99   O14   A    
C81   C89   S    
C105  C107  S    
O6    Zn12  S    
C82   O32   A    
C13   C80   S    
C92   O28   A    
O13   Zn4   S    
C43   C69   S    
O10   Zn3   S    
C21   C22   S    
C25   H22   S    
O38   Zn10  S    
O20   Zn7   S    
C73   C75   T    
C1    O1    A    
C2    C11   S    
C34   C36   S    
C79   C88   S    
C58   O23   A    
C8    C117  S    
C96   O6    A    
O26   Zn7   S    
C22   H18   S    
O7    Zn2   S    
C77   C79   T    
C95   O9    A    
C32   H41   S    
C80   C118  S    
C100  O15   A    
C93   O58   A    
C119  C134  S    
C6    C84   S    
O34   Zn5   S    
O33   Zn10  S    
C14   H23   S    
C33   H43   S    
C102  O53   S    
C21   H14   S    
O42   Zn10  S    
C90   O29   A    
C84   O37   A    
O21   Zn7   S    
C72   C74   S    
C3    C113  S    
C11   C134  S    
C39   C40   S    
C71   C73   S    
C53   C57   S    
C102  C132  S    
O11   Zn4   S    
C10   C132  S    
O55   Zn9   S    
C63   C96   S    
C15   C16   S    
C60   C64   T    
C38   H60   S    
C80   C102  S    
C86   C115  S    
O17   Zn4   S    
C67   O24   A    
C84   O36   A    
C127  C129  S    
C26   O51   S    
O4    Zn4   S    
O35   Zn11  S    
C47   O19   A    
C123  C127  T    
C17   O47   S    
C3    C11   S    
C37   H47   S    
C1    O18   A    
C17   C18   S    
C41   C47   S    
C20   H13   S    
C26   H25   S    
C103  C105  T    
C8    C34   S    
O58   Zn12  S    
C18   H6    S    
C35   C44   T    
C9    C11   S    
O28   Zn5   S    
C92   O30   A    
C87   C116  S    
C88   O55   A    
C118  C133  S    
C83   C103  S    
C28   H31   S    
C94   O4    A    
C15   H62   S    
C132  O44   S    
C64   C97   S    
C15   H56   S    
C12   C14   S    
C19   H8    S    
C12   O44   S    
C113  C134  S    
C23   H19   S    
C125  C126  T    
C34   H53   S    
C91   C119  S    
O16   Zn3   S    
C69   O34   A    
C2    C5    T    
O45   Zn8   S    
C74   C76   T    
O29   Zn6   S    
C14   H34   S    
C16   H2    S    
C24   C91   S    
C25   H24   S    
O24   Zn5   S    
C16   H64   S    
C126  C128  S    
C1    C35   S    
C116  C122  T    
O31   Zn8   S    
C47   O12   A    
C80   C117  S    
C36   C37   S    
C19   H9    S    
O19   Zn6   S    
C99   C130  S    
C33   H44   S    
C69   O21   A    
C59   C63   T    
C82   O31   A    
C18   H7    S    
C70   C92   S    
C120  O52   S    
C66   O25   A    
C128  C130  T    
C54   C59   S    
C70   C72   T    
O2    Zn2   S    
O9    Zn3   S    
C40   H54   S    
C99   O16   A    
C101  C104  T    
C39   H59   S    
C98   O13   A    
C32   O54   S    
C117  O49   S    
C10   C124  S    
C86   O41   A    
O39   Zn11  S    
C89   O56   A    
C20   H11   S    
C97   O7    A    
C32   C33   S    
C29   H33   S    
O41   Zn9   S    
C119  O51   S    
O22   Zn1   S    
C102  C133  S    
O27   Zn1   S    
C133  O46   S    
C87   O42   A    
C6    C13   T    
C4    C66   S    
C39   H58   S    
C58   O20   A    
C78   C81   T    
C30   C31   S    
C40   H57   S    
O57   Zn11  S    
C45   C50   S    
C122  C125  S    
C68   C71   T    
C9    C119  S    
C37   H48   S    
C46   C51   S    
O36   Zn8   S    
C9    C38   S    
C86   O40   A    
C82   C101  S    
C108  C110  S    
C111  C114  T    
C51   C55   T    
C83   O33   A    
C23   C25   S    
C61   C65   T    
O8    Zn2   S    
C18   H5    S    
C110  C112  T    
C30   H37   S    
C121  C123  S    
C49   C53   T    
C87   O43   A    
C3    C120  S    
C93   C112  S    
O18   Zn6   S    
C94   O2    A    
C91   C113  S    
C48   C52   S    
O14   Zn12  S    
C8    C10   S    
C89   O57   A    
C23   H20   S    
O3    Zn3   S    
C9    C120  S    
C41   C45   T    
C91   C120  S    
C98   O8    A    
C17   H3    S    
C67   O26   A    
C29   H35   S    
C55   C60   S    
O32   Zn9   S    
O25   Zn6   S    
C27   H27   S    
C16   H63   S    
C52   C56   T    
C19   O48   S    
C33   H46   S    
C106  C109  T    
C56   C61   S    
