data_str_m4_o4_o14_f0_acs.sym.17
_audit_creation_date              2012-12-11T15:43:04-0500
_audit_creation_method            fapswitch 2.2
_symmetry_space_group_name_H-M    P1
_symmetry_Int_Tables_number       1
_space_group_crystal_system       triclinic
_cell_length_a                    18.988429
_cell_length_b                    10.980993
_cell_length_c                    18.785465
_cell_angle_alpha                 90.355196
_cell_angle_beta                  90.116016
_cell_angle_gamma                 90.192758
_cell_volume                      3916.88560135

loop_
_atom_site_label
_atom_site_type_symbol
_atom_type_description
_atom_site_fract_x
_atom_site_fract_y
_atom_site_fract_z
_atom_type_partial_charge
C1    C     C_R   0.727168 0.370638 0.143242 0.543460
C2    C     C_R   0.946422 0.977047 0.051451 -0.116931
C3    C     C_R   0.757078 0.454932 0.567197 0.021084
C4    C     C_R   0.730360 0.381253 0.351376 0.553946
C5    C     C_R   0.269859 0.378540 0.647786 0.548260
C6    C     C_R   0.230361 0.881254 0.351376 0.553126
C7    C     C_R   0.769859 0.878540 0.647786 0.548332
C8    C     C_R   0.531145 0.156760 0.352784 0.546776
C9    C     C_R   0.465092 0.156734 0.644801 0.541047
C10   C     C_R   0.031144 0.656760 0.352784 0.547592
C11   C     C_R   0.965091 0.656734 0.644801 0.541085
C12   C     C_R   0.741293 0.973179 0.355143 0.557945
C13   C     C_R   0.464279 0.496980 0.976809 -0.133690
C14   C     C_R   0.260322 0.977651 0.643106 0.541020
C15   C     C_R   0.241293 0.473180 0.355144 0.558433
C16   C     C_R   0.760321 0.477651 0.643107 0.540905
C17   C     C_R   0.503345 0.173561 0.922511 -0.010868
C18   C     C_R   0.510947 0.160011 0.071213 -0.000836
C19   C     C_R   0.003309 0.674646 0.922510 -0.013367
C20   C     C_R   0.011457 0.659484 0.071097 0.004175
C21   C     C_R   0.491781 0.280481 0.964537 0.023338
C22   C     C_R   0.488823 0.269766 0.039555 0.011069
C23   C     C_R   0.989815 0.780294 0.965174 0.020226
C24   C     C_R   0.452616 0.482008 0.049202 -0.113682
C25   C     C_R   0.987159 0.768025 0.040092 0.004873
C26   C     C_R   0.531003 0.061324 0.027910 -0.157591
C27   C     C_R   0.528598 0.068962 0.954856 -0.175050
C28   C     C_R   0.033434 0.562756 0.027334 -0.147176
C29   C     C_R   0.030786 0.571253 0.954257 -0.175433
C30   C     C_R   0.744349 0.933151 0.919576 0.010148
C31   C     C_R   0.234706 0.885547 0.066770 -0.014054
C32   C     C_R   0.244875 0.433174 0.919645 0.007823
C33   C     C_R   0.735352 0.388286 0.067386 -0.004005
C34   C     C_R   0.695466 0.872260 0.962276 -0.044950
C35   C     C_R   0.296922 0.855899 0.032527 0.006630
C36   C     C_R   0.195062 0.373778 0.961926 -0.046063
C37   C     C_R   0.269684 0.378000 0.853804 0.570030
C38   C     C_R   0.798446 0.362978 0.033857 -0.020612
C39   C     C_R   0.686786 0.903883 0.033236 0.005962
C40   C     C_R   0.302538 0.864424 0.959616 0.058121
C41   C     C_R   0.186554 0.405081 0.032936 0.003228
C42   C     C_R   0.804200 0.369984 0.960763 0.047304
C43   C     C_R   0.772350 0.064113 0.020204 -0.159483
C44   C     C_R   0.179455 0.912794 0.950650 -0.126294
C45   C     C_R   0.275022 0.560968 0.020982 -0.160105
C46   C     C_R   0.680233 0.411336 0.950867 -0.128531
C47   C     C_R   0.778759 0.036131 0.947945 -0.147611
C48   C     C_R   0.226834 0.869588 0.142873 0.531987
C49   C     C_R   0.173970 0.903635 0.024430 -0.135698
C50   C     C_R   0.281045 0.533836 0.948669 -0.145548
C51   C     C_R   0.674561 0.402640 0.024619 -0.137308
C52   C     C_3   0.687464 0.738950 0.978187 0.147576
C53   C     C_3   0.370693 0.896256 0.045749 0.107560
C54   C     C_3   0.185382 0.240644 0.977436 0.146990
C55   C     C_3   0.870533 0.413107 0.046569 0.115188
C56   C     C_3   0.674930 0.774820 0.055703 0.129706
C57   C     C_3   0.377643 0.904369 0.964868 0.185128
C58   C     C_3   0.172932 0.276323 0.054985 0.129716
C59   C     C_R   0.769616 0.878013 0.853818 0.570144
C60   C     C_3   0.878226 0.415932 0.965460 0.141312
C61   C     C_R   0.729070 0.994209 0.064349 0.047515
C62   C     C_R   0.245872 0.905459 0.918405 0.014445
C63   C     C_R   0.229892 0.493376 0.064496 0.042126
C64   C     C_R   0.746801 0.406578 0.918964 0.024924
C65   C     C_R   0.532941 0.154317 0.145787 0.527188
C66   C     C_R   0.469699 0.157274 0.852506 0.532553
C67   C     C_R   0.033150 0.654150 0.145711 0.532799
C68   C     C_R   0.969665 0.657459 0.852534 0.531747
C69   C     C_R   0.481698 0.162879 0.569557 0.019534
C70   C     C_R   0.483551 0.397692 0.934675 -0.097301
C71   C     C_R   0.494865 0.162742 0.420812 0.018442
C72   C     C_R   0.981697 0.662879 0.569557 0.019527
C73   C     C_R   0.994865 0.662742 0.420811 0.018957
C74   C     C_R   0.475914 0.055338 0.530380 0.040727
C75   C     C_R   0.481805 0.054449 0.457777 0.028426
C76   C     C_R   0.975913 0.555338 0.530380 0.040329
C77   C     C_R   0.981804 0.554449 0.457777 0.029547
C78   C     C_R   0.487367 0.273533 0.457720 -0.170128
C79   C     C_R   0.482445 0.273653 0.532279 -0.163980
C80   C     C_R   0.987366 0.773533 0.457720 -0.170296
C81   C     C_R   0.464713 0.369525 0.080595 -0.091355
C82   C     C_R   0.982444 0.773653 0.532278 -0.164114
C83   C     C_3   0.514360 0.938325 0.539334 -0.278803
C84   C     C_3   0.520527 0.935428 0.459203 -0.267939
C85   C     C_3   0.014360 0.438326 0.539335 -0.279476
C86   C     C_3   0.020527 0.435429 0.459203 -0.267234
C87   C     C_R   0.748110 0.921729 0.578443 0.015511
C88   C     C_R   0.251213 0.935871 0.418812 0.018127
C89   C     C_R   0.248110 0.421730 0.578443 0.015462
C90   C     C_R   0.751213 0.435871 0.418812 0.018811
C91   C     C_R   0.783948 0.017466 0.545731 0.017902
C92   C     C_R   0.979265 0.897700 0.936239 -0.087833
C93   C     C_R   0.202347 0.007207 0.456178 0.023204
C94   C     C_R   0.283948 0.517468 0.545732 0.017989
C95   C     C_R   0.702347 0.507208 0.456178 0.023302
C96   C     C_R   0.784060 0.026486 0.472896 0.042342
C97   C     C_R   0.205400 0.015486 0.528864 0.033690
C98   C     C_R   0.284059 0.526489 0.472896 0.043208
C99   C     C_R   0.705399 0.515486 0.528865 0.033780
C100  C     C_R   0.703351 0.858248 0.462261 -0.173117
C101  C     C_R   0.314174 0.904663 0.529431 -0.151826
C102  C     C_R   0.203351 0.358249 0.462261 -0.173584
C103  C     C_R   0.960959 0.864956 0.081891 -0.079442
C104  C     C_R   0.814174 0.404663 0.529431 -0.152464
C105  C     C_R   0.702975 0.848297 0.536444 -0.165042
C106  C     C_R   0.311635 0.896659 0.454939 -0.155248
C107  C     C_R   0.202975 0.348299 0.536444 -0.165124
C108  C     C_R   0.811634 0.396658 0.454940 -0.154929
C109  C     C_3   0.858982 0.059550 0.550736 -0.269875
C110  C     C_3   0.123384 0.002467 0.457939 -0.268604
C111  C     C_3   0.358982 0.559552 0.550737 -0.269732
C112  C     C_3   0.623384 0.502470 0.457939 -0.268937
C113  C     C_R   0.727267 0.019651 0.140425 0.585363
C114  C     C_R   0.957892 0.994744 0.979208 -0.144209
C115  C     C_R   0.258077 0.967093 0.851367 0.574033
C116  C     C_R   0.227446 0.519273 0.140402 0.585611
C117  C     C_R   0.758216 0.467274 0.851486 0.574015
C118  C     C_3   0.859417 0.064664 0.470356 -0.266709
C119  C     C_3   0.127561 0.011642 0.537991 -0.280701
C120  C     C_3   0.359417 0.564666 0.470357 -0.267101
C121  C     C_3   0.627561 0.511644 0.537991 -0.280624
C122  C     C_R   0.747751 0.943430 0.429745 0.020396
C123  C     C_R   0.257079 0.954932 0.567197 0.021113
C124  C     C_R   0.247751 0.443432 0.429745 0.020227
Cr1   Cr    Cr6+3 0.772010 0.169670 0.250090 1.033122
Cr2   Cr    Cr6+3 0.383290 0.010760 0.749160 1.038445
Cr3   Cr    Cr6+3 0.116710 0.510760 0.250840 1.037671
Cr4   Cr    Cr6+3 0.883290 0.510760 0.749160 1.041378
Cr5   Cr    Cr6+3 0.227990 0.169670 0.749910 1.022594
Cr6   Cr    Cr6+3 0.272010 0.669670 0.250090 1.005065
Cr7   Cr    Cr6+3 0.727990 0.669670 0.749910 1.021211
Cr8   Cr    Cr6+3 0.615000 0.323260 0.249260 0.999128
Cr9   Cr    Cr6+3 0.385000 0.323260 0.750740 1.006545
Cr10  Cr    Cr6+3 0.115000 0.823260 0.249260 1.002492
Cr11  Cr    Cr6+3 0.885000 0.823260 0.750740 1.005562
Cr12  Cr    Cr6+3 0.616710 0.010760 0.250840 1.020272
H1    H     H_    0.549711 0.976964 0.050464 0.151717
H2    H     H_    0.075703 0.443866 0.441119 0.173026
H3    H     H_    0.480758 0.864180 0.560615 0.131465
H4    H     H_    0.575702 0.943863 0.441118 0.173651
H5    H     H_    0.565694 0.950684 0.567055 0.141870
H6    H     H_    0.489905 0.860198 0.433984 0.123944
H7    H     H_    0.065694 0.450686 0.567055 0.141999
H8    H     H_    0.989906 0.360198 0.433985 0.126331
H9    H     H_    0.670489 0.798002 0.430526 0.124677
H10   H     H_    0.359148 0.868509 0.557325 0.126938
H11   H     H_    0.170489 0.298004 0.430526 0.124881
H12   H     H_    0.542434 0.989690 0.923385 0.131548
H13   H     H_    0.859147 0.368509 0.557326 0.126933
H14   H     H_    0.672298 0.776217 0.560118 0.139720
H15   H     H_    0.353680 0.852094 0.426384 0.117498
H16   H     H_    0.172298 0.276218 0.560118 0.139775
H17   H     H_    0.853680 0.352093 0.426384 0.119479
H18   H     H_    0.895637 0.990611 0.571623 0.162269
H19   H     H_    0.103052 0.913030 0.439965 0.170743
H20   H     H_    0.395637 0.490612 0.571623 0.162197
H21   H     H_    0.603052 0.413034 0.439965 0.170764
H22   H     H_    0.863619 0.150503 0.576510 0.127037
H23   H     H_    0.053376 0.479170 0.049655 0.154478
H24   H     H_    0.098834 0.083251 0.432698 0.129573
H25   H     H_    0.363619 0.650504 0.576511 0.127110
H26   H     H_    0.598834 0.583254 0.432698 0.128746
H27   H     H_    0.866732 0.157405 0.449347 0.138093
H28   H     H_    0.105686 0.098003 0.559392 0.132992
H29   H     H_    0.366732 0.657407 0.449347 0.137708
H30   H     H_    0.605686 0.598005 0.559392 0.132962
H31   H     H_    0.893432 0.994510 0.445271 0.136230
H32   H     H_    0.109534 0.927902 0.565591 0.138208
H33   H     H_    0.393432 0.494512 0.445271 0.135669
H34   H     H_    0.046070 0.493350 0.922288 0.134416
H35   H     H_    0.609534 0.427903 0.565591 0.138145
H36   H     H_    0.495021 0.415796 0.879465 0.137000
H37   H     H_    0.454721 0.361489 0.137024 0.142447
H38   H     H_    0.990391 0.917880 0.881220 0.139614
H39   H     H_    0.951234 0.854938 0.138268 0.143474
H40   H     H_    0.949580 0.083606 0.956196 0.150478
H41   H     H_    0.927691 0.050588 0.084684 0.129109
H42   H     H_    0.457843 0.585587 0.952990 0.172400
H43   H     H_    0.435627 0.558288 0.081489 0.170013
H44   H     H_    0.805435 0.133787 0.042944 0.133828
H45   H     H_    0.491281 0.359082 0.429888 0.114781
H46   H     H_    0.133365 0.938536 0.920293 0.127819
H47   H     H_    0.309758 0.628031 0.044163 0.178319
H48   H     H_    0.633932 0.434284 0.920099 0.125548
H49   H     H_    0.816201 0.087193 0.916442 0.159947
H50   H     H_    0.122543 0.915652 0.048211 0.154702
H51   H     H_    0.319591 0.583305 0.917652 0.170333
H52   H     H_    0.622816 0.411838 0.048075 0.155258
H53   H     H_    0.640812 0.696821 0.951916 0.121991
H54   H     H_    0.375286 0.985576 0.073897 0.101602
H55   H     H_    0.138369 0.200375 0.950837 0.120722
H56   H     H_    0.482255 0.359264 0.560717 0.117989
H57   H     H_    0.870084 0.504951 0.071853 0.145388
H58   H     H_    0.620293 0.758242 0.074897 0.095280
H59   H     H_    0.386789 0.997944 0.944942 0.133870
H60   H     H_    0.118007 0.261677 0.073866 0.095944
H61   H     H_    0.885221 0.508677 0.943592 0.151390
H62   H     H_    0.288271 0.217401 0.985179 0.353592
H63   H     H_    0.909028 0.249585 0.061092 0.335723
H64   H     H_    0.790644 0.719397 0.985508 0.352324
H65   H     H_    0.404698 0.809130 0.127575 0.330597
H66   H     H_    0.714443 0.649153 0.114411 0.340046
H67   H     H_    0.991280 0.859082 0.429888 0.115242
H68   H     H_    0.469680 0.832355 0.952842 0.333227
H69   H     H_    0.210550 0.148605 0.113440 0.340706
H70   H     H_    0.971127 0.344233 0.958172 0.330138
H71   H     H_    0.982255 0.859264 0.560716 0.118076
H72   H     H_    0.980758 0.364181 0.560615 0.131513
O1    O     O_R   0.787520 0.042810 0.170440 -0.510544
O2    O     O_R   0.454050 0.051210 0.669140 -0.519517
O3    O     O_R   0.045950 0.551210 0.330860 -0.519822
O4    O     O_R   0.954050 0.551210 0.669140 -0.519599
O5    O     O_R   0.681390 0.959480 0.325510 -0.504431
O6    O     O_R   0.318610 0.959480 0.674490 -0.510930
O7    O     O_R   0.181390 0.459480 0.325510 -0.504124
O8    O     O_R   0.818610 0.459480 0.674490 -0.511235
O9    O     O_3   0.667900 0.167900 0.250060 -0.278900
O10   O     O_3   0.332100 0.167900 0.749940 -0.247901
O11   O     O_3   0.167900 0.667900 0.250060 -0.277047
O12   O     O_R   0.212480 0.042810 0.829560 -0.500408
O13   O     O_3   0.832100 0.667900 0.749940 -0.248287
O14   O     O_R   0.765640 0.292100 0.175020 -0.493246
O15   O     O_R   0.234360 0.292100 0.824980 -0.476866
O16   O     O_R   0.265640 0.792100 0.175020 -0.521529
O17   O     O_R   0.734360 0.792100 0.824980 -0.477940
O18   O     O_R   0.670190 0.408840 0.168540 -0.532004
O19   O     O_R   0.329810 0.408840 0.831460 -0.523383
O20   O     O_R   0.170190 0.908840 0.168540 -0.525333
O21   O     O_R   0.829810 0.908840 0.831460 -0.523487
O22   O     O_R   0.556620 0.251410 0.175160 -0.513654
O23   O     O_R   0.287520 0.542810 0.170440 -0.512809
O24   O     O_R   0.443380 0.251410 0.824840 -0.511103
O25   O     O_R   0.056620 0.751410 0.175160 -0.516803
O26   O     O_R   0.943380 0.751410 0.824840 -0.513072
O27   O     O_R   0.545960 0.049620 0.170320 -0.527421
O28   O     O_R   0.454040 0.049620 0.829680 -0.504309
O29   O     O_R   0.045960 0.549620 0.170320 -0.506462
O30   O     O_R   0.954040 0.549620 0.829680 -0.497348
O31   O     O_R   0.681390 0.958010 0.176690 -0.467327
O32   O     O_R   0.318610 0.958010 0.823310 -0.485744
O33   O     O_R   0.181390 0.458010 0.176690 -0.465641
O34   O     O_R   0.712480 0.542810 0.829560 -0.502953
O35   O     O_R   0.818610 0.458010 0.823310 -0.482796
O36   O     O_R   0.787510 0.044390 0.330970 -0.513831
O37   O     O_R   0.212490 0.044390 0.669030 -0.525657
O38   O     O_R   0.287510 0.544390 0.330970 -0.514761
O39   O     O_R   0.712490 0.544390 0.669030 -0.525639
O40   O     O_R   0.765630 0.293570 0.323840 -0.500784
O41   O     O_R   0.234370 0.293570 0.676160 -0.514446
O42   O     O_R   0.265630 0.793570 0.323840 -0.504837
O43   O     O_R   0.734370 0.793570 0.676160 -0.514355
O44   O     O_R   0.670190 0.410420 0.329080 -0.520458
O45   O     O_R   0.556610 0.252880 0.323980 -0.508153
O46   O     O_R   0.329810 0.410420 0.670920 -0.525774
O47   O     O_R   0.170190 0.910420 0.329080 -0.518540
O48   O     O_R   0.829810 0.910420 0.670920 -0.525784
O49   O     O_3   0.246911 0.171341 0.966693 -0.681967
O50   O     O_3   0.915786 0.331931 0.081788 -0.697016
O51   O     O_3   0.749752 0.671751 0.967326 -0.686117
O52   O     O_3   0.411489 0.803176 0.075336 -0.714606
O53   O     O_3   0.727476 0.734055 0.102366 -0.665978
O54   O     O_3   0.421595 0.815663 0.934730 -0.682953
O55   O     O_3   0.224698 0.233144 0.101780 -0.664771
O56   O     O_R   0.443390 0.252880 0.676020 -0.512409
O57   O     O_3   0.924177 0.328406 0.937100 -0.712698
O58   O     O_R   0.056610 0.752880 0.323980 -0.508614
O59   O     O_R   0.943390 0.752880 0.676020 -0.512299
O60   O     O_R   0.545950 0.051210 0.330860 -0.523774

loop_
_geom_bond_atom_site_label_1
_geom_bond_atom_site_label_2
_ccdc_geom_bond_type
C3    C104  A    
Cr10  O58   S    
Cr9   O56   S    
C82   H71   S    
H70   O57   S    
C97   C119  S    
C3    C16   S    
C87   C91   A    
C58   O55   S    
C35   C53   S    
C118  H31   S    
C20   C67   S    
C111  H25   S    
C59   O21   A    
C106  H15   S    
C60   O57   S    
C72   C76   A    
C26   H1    S    
Cr2   O32   S    
Cr3   O33   S    
C85   H7    S    
C83   H3    S    
C7    O48   A    
Cr6   O38   S    
C119  H28   S    
C1    C33   S    
C90   C95   A    
Cr5   O37   S    
Cr1   O14   S    
C68   O26   A    
C18   C65   S    
C98   C124  A    
C121  H30   S    
C43   C61   A    
C100  C105  A    
C101  C123  A    
C65   O22   A    
C57   H59   S    
C32   C36   A    
C96   C118  S    
C28   C29   A    
C9    C69   S    
C41   C58   S    
C38   C42   A    
Cr5   O12   S    
C95   C112  S    
C112  H26   S    
C11   O4    A    
C10   C73   S    
C95   C99   A    
C120  H33   S    
C16   O39   A    
C80   H67   S    
C20   C25   A    
C94   C98   A    
Cr4   O30   S    
Cr10  O11   S    
Cr12  O27   S    
C66   O24   A    
C94   C111  S    
C6    C88   S    
C14   O6    A    
Cr1   O36   S    
Cr8   O9    S    
C46   H48   S    
C89   C94   A    
C16   O8    A    
C70   H36   S    
C4    O40   A    
C51   H52   S    
Cr2   O6    S    
C91   C96   A    
C88   C93   A    
C52   C56   S    
C73   C80   A    
C7    C87   S    
C38   C55   S    
C83   C84   S    
C27   H12   S    
C12   O36   A    
C18   C26   A    
C109  C118  S    
C7    O43   A    
Cr2   O28   S    
C14   C123  S    
C2    H41   S    
C71   C78   A    
Cr11  O48   S    
C47   H49   S    
C43   C47   A    
C53   H54   S    
C9    O2    A    
C20   C28   A    
C8    O60   A    
C93   C110  S    
C99   C121  S    
C14   O37   A    
C117  O34   A    
C114  H40   S    
C74   C83   S    
C40   C62   A    
C53   O52   S    
C18   C22   A    
C55   C60   S    
Cr11  O59   S    
C36   C41   A    
C12   O5    A    
C31   C49   A    
C102  C124  A    
C109  H22   S    
C9    O56   A    
Cr7   O43   S    
C120  H29   S    
C4    C90   S    
Cr6   O42   S    
C5    C89   S    
C39   C61   A    
Cr5   O41   S    
C101  H10   S    
C1    O14   A    
C74   C75   A    
C49   H50   S    
Cr3   O11   S    
C34   C39   A    
C17   C27   A    
C22   C81   A    
C5    O41   A    
C30   C47   A    
C19   C68   S    
C76   C77   A    
C4    O44   A    
C53   C57   S    
C15   O7    A    
Cr2   O2    S    
C42   C60   S    
C83   H5    S    
Cr1   O1    S    
C11   C72   S    
C63   C116  S    
Cr12  O9    S    
C48   O16   A    
C92   H38   S    
C85   C86   S    
C52   O51   S    
C46   C51   A    
C67   O29   A    
C44   C49   A    
C17   C21   A    
C64   C117  S    
C13   C24   A    
C66   O28   A    
C111  C120  S    
Cr10  O20   S    
C104  H13   S    
C110  C119  S    
C19   C23   A    
C24   C81   A    
C1    O18   A    
Cr5   O10   S    
C108  H17   S    
C6    O42   A    
Cr8   O18   S    
C102  H11   S    
C88   C106  A    
Cr7   O17   S    
Cr11  O21   S    
C39   C56   S    
C87   C105  A    
C15   O38   A    
C84   H6    S    
C100  H9    S    
C30   C34   A    
C30   C59   S    
C89   C107  A    
C24   H43   S    
C103  H39   S    
C26   C27   A    
Cr11  O26   S    
C69   C74   A    
Cr7   O13   S    
Cr8   O44   S    
C32   C37   S    
C109  H18   S    
C32   C50   A    
C13   H42   S    
Cr7   O39   S    
Cr8   O45   S    
Cr4   O8    S    
C56   H58   S    
C107  H16   S    
C117  O35   A    
C80   C82   A    
C15   C124  S    
C55   H57   S    
C5    O46   A    
C77   C86   S    
Cr3   O29   S    
C37   O15   A    
C79   H56   S    
C116  O23   A    
C61   C113  S    
C29   H34   S    
C31   C35   A    
C115  O12   A    
C69   C79   A    
C102  C107  A    
C105  H14   S    
C41   C63   A    
C43   H44   S    
C19   C29   A    
H66   O53   S    
C93   C97   A    
C50   H51   S    
C104  C108  A    
C110  H24   S    
C45   H47   S    
H64   O51   S    
Cr12  O5    S    
C54   C58   S    
C44   H46   S    
Cr3   O3    S    
C101  C106  A    
Cr4   O35   S    
C116  O33   A    
C67   O25   A    
Cr11  O13   S    
H68   O54   S    
C40   C57   S    
C10   O58   A    
C112  C121  S    
C121  H35   S    
C78   C79   A    
C57   O54   S    
C65   O27   A    
C25   C103  A    
Cr9   O19   S    
Cr1   O40   S    
Cr7   O34   S    
Cr8   O22   S    
Cr4   O13   S    
Cr10  O47   S    
C42   C64   A    
C98   C120  S    
C110  H19   S    
C33   C51   A    
H69   O55   S    
C59   O17   A    
C34   C52   S    
Cr9   O10   S    
C96   C122  A    
C21   C70   A    
C31   C48   S    
C78   H45   S    
C44   C62   A    
C91   C109  S    
C55   O50   S    
Cr6   O16   S    
C56   O53   S    
H65   O52   S    
C113  O1    A    
C62   C115  S    
C97   C123  A    
C113  O31   A    
C68   O30   A    
Cr4   O4    S    
H63   O50   S    
C71   C75   A    
C2    C114  A    
Cr3   O7    S    
C115  O32   A    
Cr9   O46   S    
C86   H8    S    
Cr6   O23   S    
C23   C25   A    
C48   O20   A    
C118  H27   S    
C76   C85   S    
C58   H60   S    
Cr10  O25   S    
C45   C63   A    
C6    O47   A    
C35   C40   A    
C100  C122  A    
C52   H53   S    
C28   H23   S    
Cr12  O60   S    
C17   C66   S    
Cr6   O11   S    
C75   C84   S    
C2    C103  A    
Cr9   O24   S    
C36   C54   S    
C86   H2    S    
C90   C108  A    
C60   H61   S    
C3    C99   A    
C10   O3    A    
C37   O19   A    
C111  H20   S    
C12   C122  S    
C54   H55   S    
C84   H4    S    
C73   C77   A    
C13   C70   A    
Cr12  O31   S    
C46   C64   A    
C54   O49   S    
C11   O59   A    
C23   C92   A    
C112  H21   S    
C33   C38   A    
C45   C50   A    
Cr5   O15   S    
C21   C22   A    
C92   C114  A    
C119  H32   S    
H62   O49   S    
C72   C82   A    
C8    O45   A    
Cr2   O10   S    
C85   H72   S    
C81   H37   S    
C8    C71   S    
Cr1   O9    S    
