data_str_m9_o20_o22_f0_sra.sym.241
_audit_creation_date              2013-03-05T15:57:19-0500
_audit_creation_method            fapswitch 2.2
_symmetry_space_group_name_H-M    P1
_symmetry_Int_Tables_number       1
_space_group_crystal_system       triclinic
_cell_length_a                    6.99487
_cell_length_b                    17.292745
_cell_length_c                    18.676195
_cell_angle_alpha                 106.646334
_cell_angle_beta                  90.063589
_cell_angle_gamma                 90.522607
_cell_volume                      2164.30022662

loop_
_atom_site_label
_atom_site_type_symbol
_atom_site_description
_atom_site_fract_x
_atom_site_fract_y
_atom_site_fract_z
_atom_type_partial_charge
O1    O     O_R   0.505770 0.442340 0.559500 -0.566209
O2    O     O_R   0.168070 0.405470 0.411510 -0.525590
O3    O     O_R   0.005580 0.557660 0.440500 -0.570940
C1    C     C_R   0.338341 0.379661 0.385424 0.895024
O4    O     O_R   0.175550 0.432860 0.557160 -0.567525
O5    O     O_R   0.013110 0.585240 0.587190 -0.600543
C2    C     C_R   0.344317 0.415946 0.580492 0.946718
O6    O     O_R   0.498240 0.414760 0.412810 -0.610201
O7    O     O_3   0.341770 0.549960 0.509680 -0.246672
V1    V     V_3+5 0.063870 0.490730 0.498200 1.265564
O8    O     O_R   0.683850 0.594530 0.588490 -0.563455
C3    C     C_R   0.853947 0.619220 0.615244 1.039575
O9    O     O_R   0.676380 0.567140 0.442840 -0.566945
C4    C     C_R   0.845267 0.583717 0.419216 1.021565
V2    V     V_3+5 0.564820 0.509270 0.501800 1.256481
O10   O     O_3   0.836790 0.450040 0.490320 -0.244042
C5    C     C_1   0.856535 0.635727 0.367139 -0.235884
C6    C     C_1   0.867842 0.678335 0.323578 0.100871
C7    C     C_1   0.882253 0.728593 0.271715 0.026559
C8    C     C_1   0.894600 0.770927 0.227934 0.018058
C9    C     C_1   0.908972 0.821200 0.176076 0.077758
C10   C     C_1   0.920231 0.863833 0.132527 -0.310876
C11   C     C_3   0.693949 0.803205 0.782237 -0.432598
H1    H     H_    0.601464 0.785238 0.823398 0.178510
H2    H     H_    0.638359 0.862267 0.779389 0.190114
C12   C     C_3   0.675679 0.737992 0.705337 0.242673
H3    H     H_    0.563616 0.694261 0.711188 0.114247
H4    H     H_    0.880256 0.722324 0.872223 0.199468
C13   C     C_3   0.963608 0.732237 0.824883 -0.459541
C14   C     C_3   0.033155 0.828269 0.748795 -0.453505
C15   C     C_3   0.904865 0.813068 0.811359 -0.023606
H5    H     H_    0.183034 0.841033 0.769155 0.160924
H6    H     H_    0.981789 0.883154 0.735216 0.212677
C16   C     C_3   0.869977 0.691868 0.684666 -0.400602
C17   C     C_3   0.934576 0.660703 0.752334 0.174626
C18   C     C_3   0.031546 0.753890 0.677517 0.263936
H7    H     H_    0.171729 0.723531 0.676070 0.088044
H8    H     H_    0.116668 0.735845 0.842051 0.162619
H9    H     H_    0.076845 0.631786 0.738151 0.095241
C19   C     C_3   0.545640 0.260411 0.318666 -0.136521
H10   H     H_    0.658768 0.304950 0.323092 0.254032
C20   C     C_3   0.575937 0.189155 0.246039 -0.368631
H11   H     H_    0.578246 0.130251 0.259149 0.143461
H12   H     H_    0.717082 0.195016 0.221215 0.230540
H13   H     H_    0.526166 0.372727 0.250700 0.169284
C21   C     C_3   0.387103 0.339597 0.243772 -0.262031
C22   C     C_3   0.200757 0.241203 0.303879 0.313957
C23   C     C_3   0.359308 0.307612 0.314516 -0.226456
H14   H     H_    0.218156 0.209345 0.347490 0.067907
C24   C     C_3   0.413706 0.186232 0.188473 -0.121024
C25   C     C_3   0.395334 0.268430 0.170101 0.198373
C26   C     C_3   0.221403 0.175425 0.227951 -0.539607
H15   H     H_    0.217026 0.114758 0.237539 0.154166
H16   H     H_    0.096800 0.177380 0.191387 0.217464
H17   H     H_    0.257189 0.266048 0.139492 0.117590
C27   C     C_1   0.354533 0.363875 0.632574 -0.242881
C28   C     C_1   0.366266 0.321328 0.676177 0.110748
C29   C     C_1   0.381881 0.271186 0.728121 0.036805
C30   C     C_1   0.395384 0.228970 0.771962 0.035542
C31   C     C_1   0.410947 0.178807 0.823891 0.108602
C32   C     C_1   0.422596 0.136224 0.867469 -0.250324
O11   O     O_R   0.278700 0.085270 0.087180 -0.599965
O12   O     O_R   0.601470 0.067150 0.942830 -0.559515
O13   O     O_R   0.763830 0.914750 0.912810 -0.599119
C33   C     C_R   0.432723 0.084108 0.919520 0.987227
O14   O     O_R   0.608870 0.094540 0.088490 -0.569659
O15   O     O_R   0.771290 0.942340 0.059510 -0.574004
C34   C     C_R   0.438307 0.116509 0.117305 0.955109
O16   O     O_R   0.271240 0.057690 0.940480 -0.570627
O17   O     O_3   0.435150 0.950050 0.990310 -0.276995
V3    V     V_3+5 0.713080 0.009270 0.001800 1.189122
O18   O     O_R   0.100490 0.932820 0.057180 -0.572402
C35   C     C_R   0.931516 0.915914 0.080498 0.948913
O19   O     O_R   0.093090 0.905430 0.911530 -0.598156
C36   C     C_R   0.922779 0.882623 0.883114 0.932625
V4    V     V_3+5 0.212120 0.990690 0.998230 1.163023
O20   O     O_3   0.940180 0.049940 0.009690 -0.250692
C37   C     C_1   0.557507 0.232161 0.386447 0.149080
N1    N     N_1   0.566542 0.210243 0.439370 -0.067254
N2    N     N_R   0.547400 0.280941 0.120264 0.229184
O21   O     O_R   0.725462 0.288381 0.141384 -0.362712
O22   O     O_R   0.503921 0.285465 0.053836 -0.401371
N3    N     N_R   0.012119 0.275107 0.314885 0.211057
O23   O     O_R   0.947119 0.314409 0.270389 -0.434086
O24   O     O_R   0.933539 0.283743 0.379785 -0.447290
C38   C     C_1   0.247564 0.400942 0.237787 0.216413
N4    N     N_1   0.139315 0.449489 0.233040 -0.043331
N5    N     N_R   0.608958 0.773137 0.646755 0.255939
O25   O     O_R   0.485655 0.733681 0.597192 -0.345297
O26   O     O_R   0.656347 0.846345 0.647405 -0.344423
N6    N     N_R   0.803741 0.598911 0.764989 0.241656
O27   O     O_R   0.640891 0.618343 0.798700 -0.418609
O28   O     O_R   0.856975 0.523915 0.747146 -0.391857
N7    N     N_R   0.023760 0.780690 0.609430 0.280255
O29   O     O_R   0.142281 0.836643 0.602748 -0.308396
O30   O     O_R   0.925801 0.741381 0.550878 -0.387356

loop_
_geom_bond_atom_site_label_1
_geom_bond_atom_site_label_2
_geom_bond_distance
_ccdc_geom_bond_type
O14   C34   1.322843 A    
O12   C33   1.321776 A    
O2    C1    1.319656 A    
C7    C8    1.246565 T    
C1    O6    1.299788 A    
C22   H14   1.113441 S    
H13   C21   1.112764 S    
C12   H3    1.111304 S    
O19   V4    2.023795 S    
H4    C13   1.112279 S    
C6    C7    1.478040 S    
O5    C3    1.302352 A    
C14   C15   1.553602 S    
O13   V3    2.003840 S    
V2    O10   2.150534 S    
C27   C28   1.247189 T    
O16   V4    1.839798 S    
C16   C17   1.576437 S    
C11   C12   1.555561 S    
C25   N2    1.468982 S    
O8    V2    2.023684 S    
C12   C16   1.573803 S    
C22   C23   1.560072 S    
C13   H8    1.113334 S    
C24   C26   1.569870 S    
C11   H1    1.113680 S    
O17   V3    2.170506 S    
O15   C35   1.315133 A    
C22   N3    1.439697 S    
O7    V1    2.170401 S    
O15   V3    1.841021 S    
O18   V4    1.855310 S    
C19   C20   1.565536 S    
C30   C31   1.479325 S    
O9    C4    1.319034 A    
C4    C5    1.503706 S    
O11   V4    2.019746 S    
C20   H12   1.107287 S    
C2    C27   1.504931 S    
C26   H16   1.113347 S    
C24   C25   1.561205 S    
C21   C23   1.583251 S    
O19   C36   1.313967 A    
V4    O20   2.150519 S    
N2    O22   1.301141 A    
N6    O27   1.301641 A    
O4    C2    1.321822 A    
C37   N1    1.157375 T    
O18   C35   1.319064 A    
C25   H17   1.116601 S    
C29   C30   1.247322 T    
C21   C25   1.562780 S    
C31   C32   1.247235 T    
C11   C15   1.562690 S    
C17   H9    1.115499 S    
O14   V3    1.995343 S    
C32   C33   1.505063 S    
N6    O28   1.301197 A    
C15   C36   1.526989 S    
N3    O23   1.299085 A    
C5    C6    1.246393 T    
C8    C9    1.478142 S    
N7    O30   1.300522 A    
O3    C4    1.315054 A    
C20   C24   1.552838 S    
O1    V2    1.838015 S    
C19   H10   1.085580 S    
N3    O24   1.301082 A    
N5    O26   1.302398 A    
O6    V2    2.019495 S    
O9    V2    1.855243 S    
O17   V4    1.706029 S    
C19   C37   1.484191 S    
C20   H11   1.113980 S    
C3    C16   1.528322 S    
O2    V1    1.995225 S    
V3    O20   1.720322 S    
C26   H15   1.113850 S    
C38   N4    1.157603 T    
C1    C23   1.544695 S    
C19   C23   1.557703 S    
C18   H7    1.113183 S    
C14   H6    1.112719 S    
O1    C2    1.315885 A    
O12   V3    1.862292 S    
N2    O21   1.300142 A    
O5    V1    2.003756 S    
O8    C3    1.309497 A    
C22   C26   1.550781 S    
O11   C34   1.291610 A    
C13   C17   1.562628 S    
C14   C18   1.563736 S    
O7    V2    1.706522 S    
O4    V1    1.862239 S    
C13   C15   1.548858 S    
O3    V1    1.841003 S    
V1    O10   1.720329 S    
C14   H5    1.113209 S    
C28   C29   1.479291 S    
C33   O16   1.315991 A    
O13   C36   1.299425 A    
C16   C18   1.582931 S    
C11   H2    1.111527 S    
N7    O29   1.301491 A    
C18   N7    1.474001 S    
N5    O25   1.300737 A    
C12   N5    1.472825 S    
C10   C35   1.503927 S    
C9    C10   1.246539 T    
C24   C34   1.528430 S    
C21   C38   1.475502 S    
C17   N6    1.470556 S    
