data_str_m4_o28_o28_f0_acs.sym.84
_audit_creation_date              2012-12-11T15:20:08-0500
_audit_creation_method            fapswitch 2.2
_symmetry_space_group_name_H-M    P1
_symmetry_Int_Tables_number       1
_space_group_crystal_system       triclinic
_cell_length_a                    16.748325
_cell_length_b                    16.74834
_cell_length_c                    42.818349
_cell_angle_alpha                 89.991484
_cell_angle_beta                  89.994003
_cell_angle_gamma                 119.996417
_cell_volume                      10402.0601959

loop_
_atom_site_label
_atom_site_type_symbol
_atom_type_description
_atom_site_fract_x
_atom_site_fract_y
_atom_site_fract_z
_atom_type_partial_charge
C1    C     C_R   0.583809 0.426707 0.794443 0.610271
C2    C     C_R   0.842671 0.416042 0.705489 0.608828
C3    C     C_R   0.573311 0.157124 0.794448 0.609992
C4    C     C_R   0.583976 0.426663 0.705490 0.609164
C5    C     C_R   0.842722 0.416063 0.794491 0.609722
C6    C     C_R   0.573329 0.157186 0.705530 0.609451
C7    C     C_R   0.426706 0.583809 0.294443 0.610282
C8    C     C_R   0.416042 0.842672 0.205490 0.608860
C9    C     C_R   0.157122 0.573309 0.294447 0.610055
C10   C     C_R   0.426664 0.583978 0.205490 0.609219
C11   C     C_R   0.416080 0.842743 0.294484 0.609819
C12   C     C_R   0.157164 0.573324 0.205536 0.609549
C13   C     C_R   0.123835 0.538914 0.118553 0.230383
C14   C     C_R   0.414228 0.876514 0.381418 0.229742
C15   C     C_R   0.462303 0.587129 0.118512 0.230485
C16   C     C_R   0.122573 0.538584 0.381383 0.229631
C17   C     C_R   0.413377 0.874857 0.118492 0.229867
C18   C     C_R   0.461962 0.584183 0.381352 0.229997
C19   C     C_R   0.538897 0.124096 0.618540 0.230412
C20   C     C_R   0.876264 0.413942 0.881430 0.229780
C21   C     C_R   0.587107 0.462243 0.618510 0.230472
C22   C     C_R   0.538684 0.122673 0.881388 0.229631
C23   C     C_R   0.874786 0.413325 0.618490 0.229934
C24   C     C_R   0.584195 0.461959 0.881353 0.230057
C25   C     C_R   0.151820 0.536282 0.149051 0.241041
C26   C     C_R   0.383724 0.848894 0.350884 0.241958
C27   C     C_R   0.465599 0.617214 0.149129 0.240818
C28   C     C_R   0.151188 0.536268 0.350947 0.241998
C29   C     C_R   0.383138 0.848033 0.149097 0.239662
C30   C     C_R   0.464142 0.615045 0.350915 0.243073
C31   C     C_R   0.536149 0.151897 0.649055 0.240844
C32   C     C_R   0.848825 0.383514 0.850879 0.241780
C33   C     C_R   0.617195 0.465541 0.649126 0.240666
C34   C     C_R   0.536338 0.151255 0.850949 0.241840
C35   C     C_R   0.848000 0.383105 0.649098 0.239636
C36   C     C_R   0.615050 0.464138 0.850916 0.243070
C37   C     C_R   0.038656 0.574052 0.169157 0.139969
C38   C     C_R   0.535740 0.960174 0.330979 0.139613
C39   C     C_R   0.423738 0.464550 0.168670 0.140793
C40   C     C_R   0.037988 0.573646 0.330585 0.139051
C41   C     C_R   0.535525 0.959245 0.168706 0.141418
C42   C     C_R   0.426498 0.464374 0.330577 0.138348
C43   C     C_R   0.574318 0.038937 0.669086 0.140177
C44   C     C_R   0.959893 0.535718 0.831051 0.139805
C45   C     C_R   0.464558 0.423763 0.668669 0.140891
C46   C     C_R   0.573655 0.038009 0.830595 0.139154
C47   C     C_R   0.959218 0.535506 0.668693 0.141436
C48   C     C_R   0.464383 0.426513 0.830579 0.138355
C49   C     C_R   0.003832 0.566774 0.138602 0.292210
C50   C     C_R   0.563321 0.994639 0.361562 0.292274
C51   C     C_R   0.430359 0.437364 0.137993 0.292315
C52   C     C_R   0.002637 0.566142 0.361066 0.292167
C53   C     C_R   0.562882 0.992983 0.138028 0.292694
C54   C     C_R   0.434215 0.436614 0.361051 0.292001
C55   C     C_R   0.567152 0.004277 0.638512 0.292246
C56   C     C_R   0.994197 0.563242 0.861654 0.292308
C57   C     C_R   0.437369 0.430374 0.637992 0.292351
C58   C     C_R   0.566185 0.002693 0.861081 0.292206
C59   C     C_R   0.992930 0.562842 0.638011 0.292695
C60   C     C_R   0.436631 0.434234 0.861053 0.291993
C61   C     C_R   0.047721 0.551063 0.113146 0.161187
C62   C     C_R   0.503106 0.951467 0.386931 0.161150
C63   C     C_R   0.447704 0.498111 0.112763 0.161737
C64   C     C_R   0.046199 0.550438 0.386617 0.160677
C65   C     C_R   0.502339 0.949425 0.112775 0.161965
C66   C     C_R   0.450102 0.495957 0.386594 0.160403
C67   C     C_R   0.551309 0.048167 0.613085 0.161309
C68   C     C_R   0.951030 0.502893 0.886992 0.161265
C69   C     C_R   0.498101 0.447679 0.612761 0.161775
C70   C     C_R   0.550524 0.046294 0.886629 0.160729
C71   C     C_R   0.949349 0.502282 0.612763 0.161991
C72   C     C_R   0.495975 0.450111 0.886596 0.160414
C73   C     C_R   0.886925 0.445328 0.825534 -0.011190
C74   C     C_R   0.558453 0.112970 0.674487 -0.010654
C75   C     C_R   0.554167 0.441828 0.825387 -0.010810
C76   C     C_R   0.886459 0.445100 0.674367 -0.011097
C77   C     C_R   0.558334 0.112480 0.825406 -0.011115
C78   C     C_R   0.555003 0.441572 0.674373 -0.010757
C79   C     C_R   0.445410 0.887030 0.325512 -0.011180
C80   C     C_R   0.112862 0.558427 0.174510 -0.010641
C81   C     C_R   0.441825 0.554163 0.325387 -0.010849
C82   C     C_R   0.445117 0.886479 0.174371 -0.011136
C83   C     C_R   0.112453 0.558312 0.325402 -0.011119
C84   C     C_R   0.441581 0.555005 0.174374 -0.010759
C85   C     C_R   0.006992 0.614794 0.033222 -0.001410
C86   C     C_R   0.606106 0.989337 0.466999 -0.001285
C87   C     C_R   0.381687 0.396068 0.032579 -0.001248
C88   C     C_R   0.004276 0.613609 0.466442 -0.001418
C89   C     C_R   0.604520 0.985723 0.032590 -0.001488
C90   C     C_R   0.386911 0.391015 0.466445 -0.001228
C91   C     C_R   0.615326 0.008002 0.533128 -0.001420
C92   C     C_R   0.988331 0.605598 0.967093 -0.001280
C93   C     C_R   0.396045 0.381674 0.532578 -0.001268
C94   C     C_R   0.613709 0.004405 0.966459 -0.001444
C95   C     C_R   0.985597 0.604427 0.532573 -0.001481
C96   C     C_R   0.391030 0.386932 0.966447 -0.001219
C97   C     C_R   0.023650 0.619235 0.065841 0.522966
C98   C     C_R   0.593994 0.972958 0.434366 0.522851
C99   C     C_R   0.377674 0.407965 0.065241 0.523100
C100  C     C_R   0.021300 0.618230 0.433846 0.522750
C101  C     C_R   0.592626 0.969779 0.065255 0.523202
C102  C     C_R   0.382322 0.403330 0.433842 0.522649
C103  C     C_R   0.619707 0.024557 0.565754 0.523008
C104  C     C_R   0.972056 0.593532 0.934453 0.522890
C105  C     C_R   0.407938 0.377663 0.565240 0.523117
C106  C     C_R   0.618322 0.021406 0.933861 0.522776
C107  C     C_R   0.969677 0.592549 0.565239 0.523213
C108  C     C_R   0.403342 0.382342 0.933844 0.522655
C109  C     C_R   0.987058 0.461709 0.065859 0.490812
C110  C     C_R   0.475938 0.013647 0.434142 0.490556
C111  C     C_R   0.536532 0.525671 0.065390 0.490793
C112  C     C_R   0.984595 0.460661 0.433784 0.490567
C113  C     C_R   0.474792 0.010766 0.065430 0.490807
C114  C     C_R   0.539876 0.524209 0.433758 0.490527
C115  C     C_R   0.462048 0.987529 0.565778 0.490823
C116  C     C_R   0.013182 0.475790 0.934223 0.490567
C117  C     C_R   0.525689 0.536503 0.565384 0.490818
C118  C     C_R   0.460771 0.984759 0.933803 0.490577
C119  C     C_R   0.010611 0.474678 0.565411 0.490818
C120  C     C_R   0.524257 0.539879 0.933762 0.490545
C121  C     C_R   0.993181 0.461615 0.033015 0.017307
C122  C     C_R   0.469428 0.007827 0.466988 0.017090
C123  C     C_R   0.536925 0.532574 0.032563 0.017137
C124  C     C_R   0.990090 0.460249 0.466643 0.017239
C125  C     C_R   0.467915 0.004308 0.032606 0.017688
C126  C     C_R   0.540234 0.530219 0.466615 0.016766
C127  C     C_R   0.461953 0.993737 0.532937 0.017342
C128  C     C_R   0.007274 0.469190 0.967066 0.017122
C129  C     C_R   0.532594 0.536882 0.532558 0.017186
C130  C     C_R   0.460386 0.990302 0.966660 0.017295
C131  C     C_R   0.004104 0.467778 0.532589 0.017678
C132  C     C_R   0.530270 0.540226 0.966619 0.016752
C133  C     C_R   0.999489 0.538031 0.016607 -0.107353
C134  C     C_R   0.538040 0.999178 0.483501 -0.107231
C135  C     C_R   0.459583 0.464112 0.016062 -0.107259
C136  C     C_R   0.996525 0.536726 0.483052 -0.107326
C137  C     C_R   0.536455 0.995571 0.016089 -0.107239
C138  C     C_R   0.463757 0.460207 0.483039 -0.107324
C139  C     C_R   0.538456 0.000282 0.516521 -0.107348
C140  C     C_R   0.998387 0.537646 0.983587 -0.107220
C141  C     C_R   0.464110 0.459553 0.516059 -0.107259
C142  C     C_R   0.536845 0.996696 0.983069 -0.107327
C143  C     C_R   0.995402 0.536338 0.516071 -0.107242
C144  C     C_R   0.460239 0.463761 0.983042 -0.107327
C145  C     C_R   0.001935 0.685470 0.016558 0.263273
C146  C     C_R   0.680517 0.991910 0.483785 0.263104
C147  C     C_R   0.309651 0.321874 0.015789 0.263227
C148  C     C_R   0.999142 0.684252 0.483094 0.263104
C149  C     C_R   0.678726 0.987920 0.015781 0.262774
C150  C     C_R   0.316255 0.315286 0.483118 0.263493
C151  C     C_R   0.686145 0.003238 0.516451 0.263243
C152  C     C_R   0.990609 0.679849 0.983891 0.263074
C153  C     C_R   0.321835 0.309653 0.515789 0.263203
C154  C     C_R   0.684340 0.999249 0.983113 0.263076
C155  C     C_R   0.987814 0.678642 0.515762 0.262795
C156  C     C_R   0.315285 0.316292 0.983119 0.263522
C157  C     C_R   0.996891 0.390172 0.016349 0.188070
C158  C     C_R   0.395370 0.006744 0.483569 0.187333
C159  C     C_R   0.609693 0.606868 0.016003 0.187617
C160  C     C_R   0.993046 0.388418 0.483338 0.187724
C161  C     C_R   0.393566 0.002696 0.016066 0.188154
C162  C     C_R   0.611982 0.605099 0.483289 0.187310
C163  C     C_R   0.390409 0.997293 0.516282 0.188090
C164  C     C_R   0.006344 0.395188 0.983635 0.187350
C165  C     C_R   0.606912 0.609623 0.515998 0.187681
C166  C     C_R   0.388601 0.993345 0.983352 0.187812
C167  C     C_R   0.002406 0.393386 0.516052 0.188156
C168  C     C_R   0.605171 0.611947 0.983294 0.187319
Cr1   Cr    Cr6+3 0.530290 0.262330 0.750000 1.207840
Cr2   Cr    Cr6+3 0.732040 0.469710 0.750000 1.208523
Cr3   Cr    Cr6+3 0.737670 0.267960 0.750000 1.208530
Cr4   Cr    Cr6+3 0.262330 0.530290 0.250000 1.207812
Cr5   Cr    Cr6+3 0.469710 0.732040 0.250000 1.208538
Cr6   Cr    Cr6+3 0.267960 0.737670 0.250000 1.208465
N1    N     N_R   0.014010 0.543008 0.081533 -0.374976
N2    N     N_R   0.528890 0.984760 0.418575 -0.374914
N3    N     N_R   0.454807 0.472702 0.081022 -0.374979
N4    N     N_R   0.011900 0.542115 0.418157 -0.374935
N5    N     N_R   0.527807 0.982051 0.081046 -0.375006
N6    N     N_R   0.458444 0.470006 0.418137 -0.374869
N7    N     N_R   0.543377 0.014629 0.581453 -0.374984
N8    N     N_R   0.984150 0.528623 0.918655 -0.374923
N9    N     N_R   0.472695 0.454787 0.581020 -0.374985
N10   N     N_R   0.542210 0.012018 0.918173 -0.374941
N11   N     N_R   0.981943 0.527727 0.581030 -0.375007
N12   N     N_R   0.470033 0.458457 0.918139 -0.374870
O1    O     O_R   0.509640 0.171340 0.784000 -0.445418
O2    O     O_R   0.661700 0.490360 0.716000 -0.444427
O3    O     O_R   0.828660 0.338300 0.784000 -0.444803
O4    O     O_R   0.509640 0.171340 0.716000 -0.444989
O5    O     O_R   0.661700 0.490360 0.784000 -0.445258
O6    O     O_R   0.828660 0.338300 0.716000 -0.444490
O7    O     O_R   0.171340 0.509640 0.284000 -0.445443
O8    O     O_R   0.490360 0.661700 0.216000 -0.444436
O9    O     O_R   0.338300 0.828660 0.284000 -0.444901
O10   O     O_R   0.171340 0.509640 0.216000 -0.445079
O11   O     O_R   0.490360 0.661700 0.284000 -0.445277
O12   O     O_R   0.338300 0.828660 0.216000 -0.444536
O13   O     O_R   0.539230 0.345420 0.781810 -0.447855
O14   O     O_R   0.806190 0.460770 0.718190 -0.447765
O15   O     O_R   0.654580 0.193810 0.781810 -0.447772
O16   O     O_R   0.539230 0.345420 0.718190 -0.447898
O17   O     O_R   0.806190 0.460770 0.781810 -0.447821
O18   O     O_R   0.654580 0.193810 0.718190 -0.447792
O19   O     O_R   0.345420 0.539230 0.281810 -0.447866
O20   O     O_R   0.460770 0.806190 0.218190 -0.447769
O21   O     O_R   0.193810 0.654580 0.281810 -0.447803
O22   O     O_R   0.345420 0.539230 0.218190 -0.447921
O23   O     O_R   0.460770 0.806190 0.281810 -0.447817
O24   O     O_R   0.193810 0.654580 0.218190 -0.447800
O25   O     O_3   0.666667 0.333333 0.750000 -0.322437
O26   O     O_3   0.333333 0.666667 0.250000 -0.322375
O27   O     O_2   0.049489 0.691015 0.080169 -0.336590
O28   O     O_2   0.638690 0.945501 0.420103 -0.337121
O29   O     O_2   0.305570 0.363381 0.079543 -0.336487
O30   O     O_2   0.047299 0.690091 0.419541 -0.337165
O31   O     O_2   0.637299 0.942363 0.079553 -0.335784
O32   O     O_2   0.310471 0.357434 0.419547 -0.337741
O33   O     O_2   0.691512 0.050545 0.580082 -0.336474
O34   O     O_2   0.944448 0.638099 0.920189 -0.337023
O35   O     O_2   0.363330 0.305567 0.579545 -0.336398
O36   O     O_2   0.690172 0.047370 0.919554 -0.337060
O37   O     O_2   0.942287 0.637242 0.579538 -0.335768
O38   O     O_2   0.357429 0.310497 0.919548 -0.337734
O39   O     O_2   0.961473 0.391058 0.080865 -0.382547
O40   O     O_2   0.432322 0.040738 0.419035 -0.383169
O41   O     O_2   0.607427 0.568930 0.080426 -0.382820
O42   O     O_2   0.959298 0.390167 0.418726 -0.382957
O43   O     O_2   0.431480 0.038334 0.080478 -0.383146
O44   O     O_2   0.610386 0.569378 0.418695 -0.382621
O45   O     O_2   0.391357 0.961721 0.580782 -0.382580
O46   O     O_2   0.040498 0.432364 0.919119 -0.383202
O47   O     O_2   0.568966 0.607400 0.580418 -0.382810
O48   O     O_2   0.390268 0.959457 0.918749 -0.382961
O49   O     O_2   0.038181 0.431360 0.580456 -0.383107
O50   O     O_2   0.569441 0.610391 0.918701 -0.382579
Br1   Br    Br    0.007509 0.293283 0.962328 -0.113537
Br2   Br    Br    0.289171 0.000016 0.537497 -0.111391
Br3   Br    Br    0.708772 0.713756 0.962143 -0.110155
Br4   Br    Br    0.002111 0.290842 0.537441 -0.114270
Br5   Br    Br    0.286876 0.995340 0.962223 -0.115171
Br6   Br    Br    0.709169 0.712211 0.537345 -0.110000
Br7   Br    Br    0.293332 0.007705 0.462281 -0.113554
Br8   Br    Br    0.999816 0.289011 0.037544 -0.111376
Br9   Br    Br    0.713819 0.708674 0.462139 -0.110536
Br10  Br    Br    0.291076 0.002524 0.037448 -0.114661
Br11  Br    Br    0.994876 0.286601 0.462217 -0.114997
Br12  Br    Br    0.712328 0.709080 0.037349 -0.109822
Br13  Br    Br    0.015192 0.620173 0.796723 -0.203373
Br14  Br    Br    0.601835 0.982728 0.703525 -0.202377
Br15  Br    Br    0.381224 0.399084 0.795972 -0.204490
Br16  Br    Br    0.014997 0.620253 0.702903 -0.202090
Br17  Br    Br    0.600806 0.982088 0.795979 -0.203358
Br18  Br    Br    0.379530 0.394243 0.702833 -0.202010
Br19  Br    Br    0.620022 0.015492 0.296609 -0.203486
Br20  Br    Br    0.982434 0.601384 0.203635 -0.202516
Br21  Br    Br    0.399060 0.381219 0.295970 -0.204498
Br22  Br    Br    0.620254 0.014998 0.202922 -0.202018
Br23  Br    Br    0.982121 0.600863 0.295968 -0.203350
Br24  Br    Br    0.394163 0.379501 0.202831 -0.202076
Cl1   Cl    Cl    0.986163 0.771427 0.964603 -0.240015
Cl2   Cl    Cl    0.780358 0.004400 0.535909 -0.239443
Cl3   Cl    Cl    0.221998 0.222363 0.963649 -0.239909
Cl4   Cl    Cl    0.983325 0.770209 0.535030 -0.239740
Cl5   Cl    Cl    0.778297 0.999968 0.963619 -0.239573
Cl6   Cl    Cl    0.230204 0.213714 0.535092 -0.240050
Cl7   Cl    Cl    0.772269 0.987837 0.464479 -0.239952
Cl8   Cl    Cl    0.002716 0.779469 0.036033 -0.239457
Cl9   Cl    Cl    0.222303 0.222019 0.463650 -0.239907
Cl10  Cl    Cl    0.770275 0.983398 0.035051 -0.239718
Cl11  Cl    Cl    0.999887 0.778221 0.463598 -0.239625
Cl12  Cl    Cl    0.213689 0.230264 0.035090 -0.240098
Cl13  Cl    Cl    0.092031 0.672398 0.868316 -0.317041
Cl14  Cl    Cl    0.576144 0.905029 0.632016 -0.316961
Cl15  Cl    Cl    0.328561 0.425883 0.867280 -0.317019
Cl16  Cl    Cl    0.090548 0.672012 0.631142 -0.316884
Cl17  Cl    Cl    0.574549 0.902982 0.867318 -0.317206
Cl18  Cl    Cl    0.328141 0.418668 0.631106 -0.316748
Cl19  Cl    Cl    0.672370 0.092686 0.368160 -0.317054
Cl20  Cl    Cl    0.904375 0.575443 0.132168 -0.316984
Cl21  Cl    Cl    0.425844 0.328535 0.367279 -0.317025
Cl22  Cl    Cl    0.672058 0.090604 0.131170 -0.316894
Cl23  Cl    Cl    0.902931 0.574520 0.367294 -0.317209
Cl24  Cl    Cl    0.418613 0.328120 0.131108 -0.316747
Cl25  Cl    Cl    0.238639 0.507741 0.154554 -0.474126
Cl26  Cl    Cl    0.267826 0.763327 0.345264 -0.468557
Cl27  Cl    Cl    0.497173 0.733343 0.154988 -0.470749
Cl28  Cl    Cl    0.238560 0.508377 0.345614 -0.470979
Cl29  Cl    Cl    0.267007 0.763456 0.154933 -0.470687
Cl30  Cl    Cl    0.491842 0.730253 0.345584 -0.471336
Cl31  Cl    Cl    0.507229 0.238431 0.654608 -0.473955
Cl32  Cl    Cl    0.763542 0.267531 0.845207 -0.468428
Cl33  Cl    Cl    0.733317 0.497098 0.654985 -0.470972
Cl34  Cl    Cl    0.508424 0.238607 0.845609 -0.471168
Cl35  Cl    Cl    0.763451 0.266971 0.654943 -0.470921
Cl36  Cl    Cl    0.730249 0.491816 0.845584 -0.471587
Br25  Br    Br    0.193980 0.530909 0.083958 -0.257692
Br26  Br    Br    0.335140 0.807271 0.415946 -0.254620
Br27  Br    Br    0.472471 0.667045 0.084206 -0.257755
Br28  Br    Br    0.192178 0.530591 0.416140 -0.254513
Br29  Br    Br    0.333664 0.805162 0.084158 -0.257932
Br30  Br    Br    0.469929 0.661802 0.416102 -0.254584
Br31  Br    Br    0.530692 0.194259 0.583988 -0.257905
Br32  Br    Br    0.807013 0.334639 0.915914 -0.254858
Br33  Br    Br    0.667011 0.472387 0.584204 -0.257958
Br34  Br    Br    0.530722 0.192316 0.916138 -0.254723
Br35  Br    Br    0.805039 0.333593 0.584166 -0.258186
Br36  Br    Br    0.661816 0.469908 0.916102 -0.254770

loop_
_geom_bond_atom_site_label_1
_geom_bond_atom_site_label_2
_ccdc_geom_bond_type
C152  Cl1   S    
C132  C144  A    
C35   Cl35  S    
C112  O42   D    
C60   Cl15  S    
C61   N1    S    
C2    C76   S    
C53   Cl22  S    
C68   N8    S    
C108  N12   Am   
C11   O9    A    
C47   C76   A    
C112  C124  A    
C42   Br21  S    
C108  O38   D    
C9    O7    A    
C33   C78   A    
C21   C33   A    
C60   C72   A    
Cr1   O25   S    
C86   C134  A    
C2    O14   A    
C45   C78   A    
C87   C99   A    
C96   C108  A    
C15   Br27  S    
C28   C83   A    
C12   O10   A    
C40   C83   A    
C120  C132  A    
C168  Br3   S    
Cr1   O1    S    
C9    O21   A    
C58   C70   A    
C49   Cl20  S    
C7    O11   A    
C4    C78   S    
C147  Cl12  S    
C96   C144  A    
C162  C165  A    
C15   C27   A    
C45   C57   A    
C13   Br25  S    
C88   C148  A    
C14   C26   A    
C11   C79   S    
C9    C83   S    
C119  O49   D    
C113  N5    Am   
C114  N6    Am   
Cr4   O10   S    
Cr5   O26   S    
C3    C77   S    
C131  C143  A    
C112  N4    Am   
C100  O30   D    
C89   C101  A    
C103  N7    Am   
C20   C68   A    
C91   C103  A    
C138  C141  A    
C3    O1    A    
C46   C77   A    
C109  N1    Am   
C110  N2    Am   
C22   Br34  S    
C4    O2    A    
C93   C153  A    
C153  Cl6   S    
C5    O3    A    
C29   C82   A    
C109  C121  A    
C96   C156  A    
C123  C159  A    
C30   C81   A    
C41   C82   A    
C124  C160  A    
Cr3   O6    S    
C145  Cl8   S    
C146  Cl7   S    
C85   C97   A    
C39   Br24  S    
C92   C104  A    
C47   C59   A    
C44   Br13  S    
C36   Cl36  S    
C103  O33   D    
C123  C135  A    
C164  Br1   S    
C111  N3    Am   
C166  Br5   S    
C42   C54   A    
C39   C51   A    
C137  C142  A    
Cr3   O15   S    
C97   N1    Am   
C102  N6    Am   
C8    O12   A    
C90   C150  A    
C100  N4    Am   
C20   Br32  S    
Cr4   O19   S    
C85   C145  A    
C149  Cl10  S    
C136  C143  A    
C114  C126  A    
C31   Cl31  S    
C14   C62   A    
C128  C164  A    
Cr3   O18   S    
C10   O22   A    
C122  C134  A    
C151  Cl2   S    
Cr1   O16   S    
C34   Cl34  S    
C116  N8    Am   
C119  C131  A    
Cr5   O20   S    
C148  C155  A    
C117  C129  A    
C46   Br17  S    
C57   Cl18  S    
C131  C167  A    
C116  O46   D    
C42   C81   A    
C71   N11   S    
C90   C138  A    
C22   C34   A    
C37   C80   A    
C35   C76   A    
Cr5   O11   S    
C94   C142  A    
C110  O40   D    
C134  C139  A    
C31   C74   A    
C56   C68   A    
Cr2   O5    S    
C21   C69   A    
C36   C75   A    
C58   Cl17  S    
C117  O47   D    
C37   Br20  S    
C59   Cl16  S    
C157  C164  A    
C41   C53   A    
C37   C49   A    
C158  C163  A    
C69   N9    S    
C70   N10   S    
C7    C81   S    
C51   Cl24  S    
Cr5   O8    S    
C24   C72   A    
C20   C32   A    
C43   C55   A    
C167  Br4   S    
C55   Cl14  S    
Cr5   O23   S    
C5    O17   A    
C113  O43   D    
C54   C66   A    
C18   C66   A    
C16   Br28  S    
C14   Br26  S    
C162  Br9   S    
C128  C140  A    
C105  O35   D    
C25   Cl25  S    
C130  C142  A    
C159  Br12  S    
C145  C152  A    
C102  O32   D    
C27   Cl27  S    
C146  C151  A    
C28   Cl28  S    
Cr2   O2    S    
C22   C70   A    
C104  N8    Am   
C95   C143  A    
C25   C80   A    
C17   C29   A    
C23   Br35  S    
C7    O19   A    
C154  Cl5   S    
C19   C31   A    
C87   C147  A    
C8    C82   S    
C157  Br8   S    
C10   O8    A    
C34   C77   A    
C129  C141  A    
C38   C79   A    
C67   N7    S    
C126  C138  A    
C150  C153  A    
C19   C67   A    
C45   Br18  S    
Cr1   O13   S    
C54   Cl21  S    
C89   C149  A    
C38   Br19  S    
Cr6   O9    S    
C97   O27   D    
C148  Cl11  S    
Cr4   O7    S    
C1    O13   A    
C86   C146  A    
C6    C74   S    
C49   C61   A    
C124  C136  A    
C111  C123  A    
C87   C135  A    
C51   C63   A    
C88   C136  A    
C52   C64   A    
C65   N5    S    
C125  C137  A    
C66   N6    S    
C149  C154  A    
C119  N11   Am   
C6    O18   A    
C118  C130  A    
C23   C71   A    
C98   N2    Am   
C130  C166  A    
C4    O16   A    
C62   N2    S    
C24   C36   A    
C105  N9    Am   
C8    O20   A    
C147  C156  A    
C72   N12   S    
Cr2   O17   S    
C88   C100  A    
C95   C107  A    
C91   C139  A    
C155  Cl4   S    
C1    O5    A    
C17   Br29  S    
C89   C137  A    
C57   C69   A    
Cr6   O21   S    
C3    O15   A    
C19   Br31  S    
C160  Br11  S    
C92   C140  A    
C29   Cl29  S    
C93   C141  A    
C27   C84   A    
C127  C163  A    
C125  C161  A    
C39   C84   A    
C26   Cl26  S    
C26   C79   A    
C129  C165  A    
C48   Br15  S    
C12   O24   A    
C110  C122  A    
C52   Cl23  S    
C64   N4    S    
C158  Br7   S    
C44   C73   A    
C86   C98   A    
C23   C35   A    
C133  C140  A    
C56   Cl13  S    
C165  Br6   S    
C11   O23   A    
C85   C133  A    
C16   C28   A    
Cr2   O14   S    
Cr6   O26   S    
C99   N3    Am   
C113  C125  A    
C18   Br30  S    
C115  C127  A    
C159  C168  A    
Cr3   O3    S    
C2    O6    A    
C160  C167  A    
C44   C56   A    
C104  O34   D    
C93   C105  A    
C90   C102  A    
Cr2   O25   S    
C92   C152  A    
C18   C30   A    
C115  O45   D    
C161  C166  A    
C43   C74   A    
C121  C157  A    
C5    C73   S    
C48   C75   A    
C13   C25   A    
C127  C139  A    
Cr1   O4    S    
C150  Cl9   S    
C115  N7    Am   
C40   Br23  S    
C48   C60   A    
C107  O37   D    
C122  C158  A    
Cr6   O12   S    
C1    C75   S    
Cr4   O22   S    
C32   C73   A    
C109  O39   D    
C98   O28   D    
C40   C52   A    
C50   Cl19  S    
C24   Br36  S    
C101  N5    Am   
C156  Cl3   S    
Cr3   O25   S    
C118  O48   D    
C94   C154  A    
C106  N10   Am   
C6    O4    A    
C21   Br33  S    
C47   Br16  S    
C163  Br2   S    
C32   Cl32  S    
C135  C144  A    
C50   C62   A    
C53   C65   A    
C94   C106  A    
Cr6   O24   S    
C132  C168  A    
Cr4   O26   S    
C120  N12   Am   
C114  O44   D    
C55   C67   A    
C117  N9    Am   
C38   C50   A    
C118  N10   Am   
C107  N11   Am   
C17   C65   A    
C63   N3    S    
C111  O41   D    
C161  Br10  S    
C120  O50   D    
C91   C151  A    
C43   Br14  S    
C106  O36   D    
C99   O29   D    
C12   C80   S    
C10   C84   S    
C95   C155  A    
C41   Br22  S    
C30   Cl30  S    
C101  O31   D    
C13   C61   A    
C116  C128  A    
C46   C58   A    
C15   C63   A    
C16   C64   A    
C121  C133  A    
C126  C162  A    
C33   Cl33  S    
C59   C71   A    
