data_str_m9_o6_o19_f0_sra.sym.100
_audit_creation_date              2013-03-05T16:11:28-0500
_audit_creation_method            fapswitch 2.2
_symmetry_space_group_name_H-M    P1
_symmetry_Int_Tables_number       1
_space_group_crystal_system       triclinic
_cell_length_a                    6.947861
_cell_length_b                    18.961129
_cell_length_c                    20.738393
_cell_angle_alpha                 107.595938
_cell_angle_beta                  90.219985
_cell_angle_gamma                 90.567223
_cell_volume                      2604.03922904

loop_
_atom_site_label
_atom_site_type_symbol
_atom_site_description
_atom_site_fract_x
_atom_site_fract_y
_atom_site_fract_z
_atom_type_partial_charge
O1    O     O_R   0.505770 0.444240 0.557370 -0.585443
O2    O     O_R   0.169820 0.415250 0.421330 -0.586404
O3    O     O_R   0.005590 0.555760 0.442630 -0.591465
C1    C     C_R   0.338723 0.393624 0.395297 0.974383
O4    O     O_R   0.175660 0.435500 0.555540 -0.574075
O5    O     O_R   0.011460 0.576150 0.577800 -0.587498
C2    C     C_R   0.344393 0.421190 0.575639 0.970348
O6    O     O_R   0.499890 0.423850 0.422200 -0.586998
O7    O     O_3   0.341200 0.546120 0.507150 -0.274935
V1    V     V_3+5 0.063980 0.491440 0.498670 1.195049
O8    O     O_R   0.682100 0.584750 0.578670 -0.590087
C3    C     C_R   0.852029 0.606236 0.604602 0.980340
O9    O     O_R   0.676270 0.564500 0.444460 -0.591624
C4    C     C_R   0.845164 0.578853 0.424374 0.976730
V2    V     V_3+5 0.564720 0.508560 0.501330 1.184789
O10   O     O_3   0.837360 0.453880 0.492850 -0.262615
H1    H     H_    0.164162 0.674702 0.262223 0.130424
C5    C     C_R   0.049980 0.749684 0.212287 -0.124072
H2    H     H_    0.180622 0.749186 0.183808 0.175489
C6    C     C_R   0.893173 0.792621 0.204298 -0.029859
C7    C     C_R   0.723414 0.792338 0.242264 0.346454
C8    C     C_R   0.717252 0.749462 0.287469 -0.283208
H3    H     H_    0.588078 0.748607 0.316355 0.172902
C9    C     C_R   0.874634 0.706770 0.295005 0.122398
C10   C     C_R   0.040924 0.707224 0.257121 -0.145948
C11   C     C_1   0.912173 0.837670 0.158557 0.147159
C12   C     C_1   0.864400 0.662033 0.341083 0.025868
C13   C     C_1   0.855469 0.624396 0.379263 -0.286936
C14   C     C_1   0.925573 0.875436 0.120592 -0.218972
C15   C     C_1   0.916353 0.831608 0.833092 -0.296993
C16   C     C_1   0.900978 0.780169 0.780823 0.067522
C17   C     C_1   0.881439 0.719782 0.719206 0.068398
C18   C     C_1   0.866068 0.668345 0.666936 -0.298573
C19   C     C_1   0.352965 0.331286 0.332783 -0.293581
C20   C     C_1   0.375719 0.280055 0.280669 0.072819
C21   C     C_1   0.406753 0.220003 0.219291 0.075183
C22   C     C_1   0.429501 0.168769 0.167179 -0.289464
H4    H     H_    0.655760 0.334028 0.738724 0.211224
C23   C     C_R   0.563438 0.254270 0.788163 0.388722
C24   C     C_R   0.411624 0.206282 0.794408 -0.091222
C25   C     C_R   0.242896 0.202496 0.755978 -0.236039
H5    H     H_    0.127036 0.166010 0.761249 0.211764
C26   C     C_R   0.219359 0.245767 0.711810 0.389238
C27   C     C_R   0.371172 0.293756 0.705565 -0.090572
C28   C     C_R   0.539901 0.297542 0.743995 -0.239484
C29   C     C_1   0.421715 0.161754 0.840827 0.180362
C30   C     C_1   0.361066 0.338287 0.659149 0.182715
C31   C     C_1   0.353312 0.375782 0.620841 -0.240720
C32   C     C_1   0.429426 0.124260 0.879136 -0.240685
O11   O     O_R   0.282550 0.076220 0.077760 -0.586256
O12   O     O_R   0.606940 0.064510 0.944450 -0.576698
O13   O     O_R   0.770980 0.923830 0.922210 -0.589120
C33   C     C_R   0.438247 0.078848 0.924337 0.962637
O14   O     O_R   0.612630 0.084760 0.078660 -0.587010
O15   O     O_R   0.776710 0.944230 0.057380 -0.576156
C34   C     C_R   0.443729 0.106420 0.104675 0.986641
O16   O     O_R   0.276820 0.055820 0.942590 -0.588156
O17   O     O_3   0.441200 0.953910 0.992830 -0.268152
V3    V     V_3+5 0.718480 0.008550 0.001330 1.208230
O18   O     O_R   0.106020 0.935440 0.055580 -0.581865
C35   C     C_R   0.937021 0.921115 0.075644 0.965139
O19   O     O_R   0.100330 0.915180 0.921370 -0.592093
C36   C     C_R   0.930402 0.893719 0.895423 0.974973
V4    V     V_3+5 0.217720 0.991360 0.998720 1.202671
O20   O     O_3   0.945130 0.046090 0.007170 -0.268052
N1    N     N_R   0.557258 0.834891 0.236136 0.228886
O21   O     O_R   0.517584 0.848168 0.179569 -0.422401
O22   O     O_R   0.434985 0.855233 0.285531 -0.393290
N2    N     N_R   0.741354 0.260156 0.825691 0.242423
O23   O     O_R   0.852015 0.318266 0.835273 -0.394877
O24   O     O_R   0.802157 0.205584 0.845848 -0.411720
N3    N     N_R   0.041444 0.239879 0.674281 0.244583
O25   O     O_R   0.930793 0.181766 0.664695 -0.383851
O26   O     O_R   0.980632 0.294451 0.654126 -0.409299

loop_
_geom_bond_atom_site_label_1
_geom_bond_atom_site_label_2
_geom_bond_distance
_ccdc_geom_bond_type
N1    O22   1.301591 A    
C26   N3    1.443459 S    
O15   V3    1.966077 S    
C7    N1    1.441928 S    
O11   V4    1.965730 S    
C25   H5    1.083474 S    
C20   C21   1.447038 S    
C9    C12   1.458481 S    
C1    O6    1.297229 A    
C24   C29   1.461682 S    
C29   C32   1.217125 T    
C21   C22   1.227293 T    
C5    H2    1.083389 S    
O5    C3    1.298814 A    
C15   C16   1.222918 T    
V2    O10   2.150654 S    
C19   C20   1.227297 T    
N2    O24   1.301043 A    
H4    C28   1.083471 S    
O19   V4    1.972456 S    
C22   C34   1.471195 S    
O8    V2    1.972394 S    
C30   C31   1.217125 T    
O1    V2    1.963801 S    
O7    V1    2.159467 S    
C27   C30   1.461682 S    
C23   C28   1.412382 A    
N1    O21   1.301160 A    
C14   C35   1.453524 S    
C7    C8    1.414933 A    
C25   C26   1.412372 A    
C5    C10   1.403088 A    
C1    C19   1.471211 S    
O14   V3    1.956991 S    
O17   V4    1.703204 S    
O14   C34   1.310453 A    
C9    C10   1.401090 A    
N3    O26   1.301042 A    
C23   C24   1.417951 A    
O4    C2    1.301018 A    
C33   O16   1.298211 A    
O17   V3    2.159472 S    
O11   C34   1.297218 A    
C17   C18   1.222918 T    
O18   C35   1.300532 A    
O12   C33   1.301043 A    
O2    C1    1.310458 A    
C26   C27   1.417953 A    
O19   C36   1.304703 A    
O13   V3    1.956632 S    
C16   C17   1.439903 S    
C23   N2    1.443456 S    
O3    C4    1.297727 A    
C24   C25   1.403987 A    
O6    V2    1.965223 S    
O9    V2    1.965648 S    
C8    C9    1.402880 A    
O12   V3    1.970757 S    
O2    V1    1.956900 S    
C27   C28   1.403989 A    
O16   V4    1.967585 S    
O1    C2    1.298215 A    
N3    O25   1.301663 A    
O13   C36   1.298816 A    
O5    V1    1.956672 S    
O8    C3    1.304702 A    
O18   V4    1.965627 S    
H1    C10   1.083427 S    
C2    C31   1.453452 S    
O7    V2    1.704377 S    
O4    V1    1.970714 S    
O3    V1    1.966149 S    
V1    O10   1.710340 S    
V3    O20   1.710359 S    
C6    C11   1.461338 S    
C32   C33   1.453452 S    
O15   C35   1.297286 A    
V4    O20   2.150826 S    
C15   C36   1.464165 S    
C5    C6    1.405331 A    
N2    O23   1.301664 A    
C6    C7    1.421499 A    
C11   C14   1.217152 T    
C12   C13   1.217039 T    
C8    H3    1.083658 S    
C4    C13   1.453880 S    
C3    C18   1.464170 S    
O9    C4    1.300211 A    
