data_str_m3_o16_o21_f0_pcu.sym.251
_audit_creation_date              2013-03-05T15:58:45-0500
_audit_creation_method            fapswitch 2.2
_symmetry_space_group_name_H-M    P1
_symmetry_Int_Tables_number       1
_space_group_crystal_system       triclinic
_cell_length_a                    12.621454
_cell_length_b                    13.177229
_cell_length_c                    13.669494
_cell_angle_alpha                 91.576076
_cell_angle_beta                  96.389509
_cell_angle_gamma                 96.801942
_cell_volume                      2241.52083677

loop_
_atom_site_label
_atom_site_type_symbol
_atom_site_description
_atom_site_fract_x
_atom_site_fract_y
_atom_site_fract_z
_atom_type_partial_charge
O1    O     O_R   0.631100 0.627590 0.523760 -0.617558
O2    O     O_R   0.455900 0.662370 0.491970 -0.628160
C1    C     C_R   0.558375 0.690939 0.518301 0.871791
O3    O     O_R   0.600200 0.480080 0.377830 -0.615991
O4    O     O_R   0.425000 0.514870 0.346040 -0.608795
C2    C     C_R   0.516977 0.496722 0.318266 0.887767
Zn1   Zn    Zn3+2 0.616980 0.476780 0.521230 1.001503
Zn2   Zn    Zn3+2 0.383020 0.523220 0.478770 0.926663
O5    O     O_R   0.544100 0.337630 0.508030 -0.579732
O6    O     O_R   0.368900 0.372410 0.476240 -0.644807
O7    O     O_R   0.575000 0.485130 0.653960 -0.554021
O8    O     O_R   0.399800 0.519920 0.622170 -0.651909
C3    C     C_R   0.440625 0.308786 0.489086 0.908230
C4    C     C_R   0.482987 0.503174 0.681716 0.885618
C5    C     C_1   0.471569 0.504577 0.782664 -0.119536
C6    C     C_2   0.456081 0.506261 0.970594 -0.165582
C7    C     C_2   0.543329 0.491702 0.029210 -0.131941
C8    C     C_1   0.537646 0.492847 0.131746 0.009473
C9    C     C_1   0.461928 0.505722 0.868105 0.032885
C10   C     C_1   0.528180 0.494643 0.217237 -0.166780
H1    H     H_    0.618082 0.479337 0.000756 0.184213
H2    H     H_    0.381350 0.518700 0.999043 0.162268
C11   C     C_R   0.272905 0.060601 0.525536 0.521745
H3    H     H_    0.236892 0.213789 0.501150 0.187760
H4    H     H_    0.254718 0.869357 0.591165 0.204154
C12   C     C_R   0.404846 0.200247 0.492698 -0.133923
C13   C     C_R   0.701951 0.837341 0.542035 -0.273918
C14   C     C_R   0.734757 0.942429 0.547573 0.351178
C15   C     C_R   0.656254 0.009340 0.541874 -0.244759
C16   C     C_R   0.545865 0.972275 0.540659 0.062236
C17   C     C_R   0.517445 0.867941 0.555044 0.090406
C18   C     C_R   0.462702 0.035406 0.526787 0.051100
C19   C     C_R   0.355730 0.997712 0.541859 0.031392
C20   C     C_R   0.333981 0.898598 0.573632 -0.203357
C21   C     C_R   0.414206 0.835040 0.581689 -0.187264
C22   C     C_R   0.482800 0.134223 0.494955 -0.196821
C23   C     C_R   0.298945 0.163374 0.505476 -0.298652
C24   C     C_R   0.593139 0.799693 0.541403 -0.172618
H5    H     H_    0.560126 0.162531 0.473392 0.175904
H6    H     H_    0.761300 0.785045 0.536616 0.199608
H7    H     H_    0.683726 0.089901 0.543057 0.210684
H8    H     H_    0.394495 0.760306 0.610230 0.180129
C25   C     C_R   0.900995 0.354347 0.639452 -0.287035
H9    H     H_    0.104047 0.321886 0.660947 0.176293
H10   H     H_    0.919568 0.300150 0.695252 0.189615
N1    N     N_R   0.773270 0.445590 0.549770 -0.163546
C26   C     C_R   0.212047 0.628833 0.386359 0.020996
C27   C     C_R   0.110086 0.656741 0.361975 -0.250368
C28   C     C_R   0.023804 0.606888 0.403828 -0.170222
C29   C     C_R   0.039718 0.528732 0.470846 0.038995
C30   C     C_R   0.145515 0.503757 0.493654 0.228479
C31   C     C_R   0.955939 0.476120 0.517648 -0.005563
C32   C     C_R   0.980553 0.402402 0.587959 0.118122
C33   C     C_R   0.084828 0.378655 0.607983 -0.217941
C34   C     C_R   0.165987 0.428434 0.561020 -0.213893
C35   C     C_R   0.848324 0.494177 0.498714 -0.115252
C36   C     C_R   0.797161 0.378645 0.620779 0.452200
N2    N     N_R   0.227520 0.553880 0.450750 -0.132610
H11   H     H_    0.821577 0.546485 0.444866 0.147793
H12   H     H_    0.279575 0.667176 0.354116 0.144804
H13   H     H_    0.946466 0.631911 0.383271 0.140754
H14   H     H_    0.097986 0.716915 0.311049 0.150094
H15   H     H_    0.244452 0.407429 0.580125 0.214324
N3    N     N_R   0.717756 0.336843 0.679866 0.226936
O9    O     O_R   0.718824 0.374966 0.768806 -0.392105
O10   O     O_R   0.667672 0.245889 0.657394 -0.406597
O11   O     O_3   0.167167 0.023258 0.532648 -0.570245
C37   C     C_3   0.118790 0.990508 0.437156 -0.201871
H16   H     H_    0.158784 0.927718 0.406497 0.122505
H17   H     H_    0.118914 0.055230 0.386403 0.148678
H18   H     H_    0.033878 0.959881 0.441073 0.240336
N4    N     N_R   0.847170 0.980752 0.556719 0.207493
O12   O     O_R   0.919166 0.920980 0.583824 -0.387917
O13   O     O_R   0.878284 0.076925 0.544786 -0.393837

loop_
_geom_bond_atom_site_label_1
_geom_bond_atom_site_label_2
_geom_bond_distance
_ccdc_geom_bond_type
O4    Zn2   1.949747 S    
C16   C18   1.414550 A    
C17   C24   1.410763 A    
C12   C23   1.398549 A    
Zn1   O5    1.945802 S    
C15   C16   1.418884 A    
C34   H15   1.066277 S    
C2    C10   1.403656 S    
H4    C20   1.083459 S    
C27   H14   1.082616 S    
C26   C27   1.387735 A    
C35   H11   1.076381 S    
C13   H6    1.083187 S    
Zn2   O8    1.950288 S    
C13   C14   1.395059 A    
C15   H7    1.076126 S    
C18   C19   1.421532 A    
N4    O12   1.301545 A    
C7    C8    1.411162 S    
C29   C30   1.416212 A    
C30   N2    1.358659 A    
O1    Zn1   1.973097 S    
C32   C33   1.388179 A    
N3    O9    1.300682 A    
C26   N2    1.357804 A    
Zn1   O7    1.949747 S    
C25   H10   1.084721 S    
C16   C17   1.404011 A    
C33   C34   1.379135 A    
C14   N4    1.439089 S    
C22   H5    1.078138 S    
O3    Zn1   1.950286 S    
C18   C22   1.388058 A    
C37   H17   1.114075 S    
C27   C28   1.390923 A    
C19   C20   1.393764 A    
O2    C1    1.310611 A    
C8    C10   1.187740 T    
C37   H18   1.107163 S    
N1    C36   1.362451 A    
C6    C9    1.410960 S    
O4    C2    1.306846 A    
O7    C4    1.306796 A    
C17   C21   1.413851 A    
C3    C12   1.451840 S    
C29   C31   1.417517 A    
O3    C2    1.299374 A    
C28   H13   1.077403 S    
C25   C36   1.383686 A    
C13   C24   1.402865 A    
N1    C35   1.349968 A    
O11   C37   1.411432 S    
C5    C9    1.187525 T    
Zn1   N1    2.059582 S    
H9    C33   1.084561 S    
C12   C22   1.386864 A    
C6    C7    1.324207 D    
C31   C32   1.421356 A    
C11   C19   1.411661 A    
C36   N3    1.426205 S    
N4    O13   1.301782 A    
C20   C21   1.385625 A    
C11   O11   1.381517 S    
H3    C23   1.083208 S    
C28   C29   1.414281 A    
C21   H8    1.081020 S    
O5    C3    1.311065 A    
C4    C5    1.403118 S    
C14   C15   1.399554 A    
C6    H2    1.087436 S    
N3    O10   1.299019 A    
C30   C34   1.399274 A    
Zn2   N2    2.047167 S    
C26   H12   1.081575 S    
C11   C23   1.397248 A    
C25   C32   1.391384 A    
Zn2   O6    1.973094 S    
O2    Zn2   1.945802 S    
C31   C35   1.403618 A    
C1    C24   1.463307 S    
O8    C4    1.299290 A    
C37   H16   1.114431 S    
O1    C1    1.309440 A    
O6    C3    1.306044 A    
C7    H1    1.087490 S    
