data_str_m2_o3_o5_f0_pcu.sym.150
_audit_creation_date              2012-12-10T18:54:28-0500
_audit_creation_method            fapswitch 2.2
_symmetry_space_group_name_H-M    P1
_symmetry_Int_Tables_number       1
_space_group_crystal_system       triclinic
_cell_length_a                    19.42399
_cell_length_b                    18.175625
_cell_length_c                    9.081358
_cell_angle_alpha                 90.07201
_cell_angle_beta                  90.229024
_cell_angle_gamma                 89.930343
_cell_volume                      3206.08081423

loop_
_atom_site_label
_atom_site_type_symbol
_atom_type_description
_atom_site_fract_x
_atom_site_fract_y
_atom_site_fract_z
_atom_type_partial_charge
C1    C     C_R   0.367787 0.500022 0.499703 0.792417
C2    C     C_R   0.632213 0.499978 0.500295 0.792415
C3    C     C_R   0.457190 0.721007 0.407239 0.106687
C4    C     C_R   0.542808 0.278993 0.592766 0.106687
C5    C     C_R   0.542928 0.720961 0.592641 0.107633
C6    C     C_R   0.457075 0.279039 0.407353 0.107632
C7    C     C_R   0.456358 0.798281 0.405525 -0.267805
C8    C     C_R   0.543640 0.201719 0.594481 -0.267807
C9    C     C_R   0.543792 0.798252 0.594377 -0.267807
C10   C     C_R   0.456211 0.201748 0.405617 -0.267808
C11   C     C_R   0.500061 0.838442 0.499992 0.103246
C12   C     C_R   0.499939 0.161558 0.500007 0.103246
C13   C     C_R   0.561334 0.961293 0.521929 -0.164853
C14   C     C_R   0.438666 0.038707 0.478070 -0.164853
C15   C     C_R   0.438698 0.961373 0.478097 -0.165618
C16   C     C_R   0.561302 0.038628 0.521903 -0.165619
C17   C     C_R   0.499967 0.078710 0.499976 0.113893
C18   C     C_R   0.500033 0.921290 0.500023 0.113893
C19   C     C_R   0.499963 0.499975 0.220445 0.858522
C20   C     C_R   0.500037 0.500025 0.779554 0.858523
C21   C     C_1   0.499986 0.499965 0.065490 -0.150104
C22   C     C_1   0.500014 0.500035 0.934510 -0.150104
C23   C     C_R   0.744649 0.458613 0.605995 -0.029726
C24   C     C_R   0.255350 0.541385 0.394002 -0.029727
C25   C     C_R   0.255998 0.458391 0.605555 -0.036936
C26   C     C_R   0.744002 0.541611 0.394448 -0.036936
C27   C     C_R   0.816469 0.458881 0.604773 -0.168229
C28   C     C_R   0.183531 0.541118 0.395227 -0.168228
C29   C     C_R   0.184165 0.458777 0.605039 -0.170728
C30   C     C_R   0.815836 0.541225 0.394966 -0.170727
C31   C     C_R   0.851940 0.499976 0.499646 0.084493
C32   C     C_R   0.148060 0.500025 0.500357 0.084493
C33   C     C_R   0.707758 0.499992 0.500175 -0.116322
C34   C     C_R   0.292242 0.500008 0.499825 -0.116319
C35   C     C_R   0.963820 0.562678 0.549219 -0.064134
C36   C     C_R   0.036181 0.437322 0.450785 -0.064134
C37   C     C_R   0.036156 0.562654 0.549571 -0.064672
C38   C     C_R   0.963845 0.437347 0.450435 -0.064672
C39   C     C_R   0.072270 0.499974 0.500367 -0.024900
C40   C     C_R   0.927731 0.500027 0.499638 -0.024899
Cu1   Cu    Cu3+1 0.500000 0.573360 0.500000 0.972927
Cu2   Cu    Cu3+1 0.500000 0.426640 0.500000 0.972926
H1    H     H_    0.845032 0.427629 0.686384 0.145049
H2    H     H_    0.154968 0.572368 0.313614 0.145049
H3    H     H_    0.156102 0.427316 0.686517 0.144572
H4    H     H_    0.843899 0.572688 0.313492 0.144572
H5    H     H_    0.423617 0.690868 0.333692 0.145915
H6    H     H_    0.576377 0.309131 0.666319 0.145917
H7    H     H_    0.576622 0.690764 0.666015 0.129370
H8    H     H_    0.423383 0.309236 0.333974 0.129370
H9    H     H_    0.422413 0.826226 0.329054 0.139620
H10   H     H_    0.577582 0.173773 0.670956 0.139621
H11   H     H_    0.577784 0.826191 0.670771 0.137801
H12   H     H_    0.422221 0.173809 0.329219 0.137802
H13   H     H_    0.609854 0.932831 0.536608 0.138395
H14   H     H_    0.390146 0.067169 0.463391 0.138396
H15   H     H_    0.390200 0.932975 0.463431 0.138349
H16   H     H_    0.609800 0.067026 0.536570 0.138350
N1    N     N_R   0.500000 0.683620 0.500000 -0.179775
N2    N     N_R   0.500000 0.316380 0.500000 -0.179775
O1    O     O_R   0.400190 0.561980 0.499980 -0.579528
O2    O     O_R   0.599810 0.438020 0.500020 -0.579525
O3    O     O_R   0.599810 0.561980 0.500020 -0.581221
O4    O     O_R   0.400190 0.438020 0.499980 -0.581220
O5    O     O_R   0.500000 0.561940 0.288400 -0.573479
O6    O     O_R   0.500000 0.438060 0.711600 -0.573480
O7    O     O_R   0.500000 0.561940 0.711600 -0.585812
O8    O     O_R   0.500000 0.438060 0.288400 -0.585815
C41   C     C_1   0.710122 0.417996 0.720676 0.237265
N3    N     N_1   0.682578 0.385628 0.812891 -0.292734
C42   C     C_1   0.289877 0.582000 0.279317 0.237260
N4    N     N_1   0.317421 0.614367 0.187098 -0.292730
C43   C     C_1   0.291333 0.416680 0.718293 0.255684
N5    N     N_1   0.319681 0.383336 0.808570 -0.269956
C44   C     C_1   0.708668 0.583323 0.281711 0.255683
N6    N     N_1   0.680320 0.616668 0.191435 -0.269955
C45   C     C_1   0.926437 0.626569 0.602168 0.259348
N7    N     N_1   0.896565 0.677479 0.644368 -0.260060
C46   C     C_1   0.073564 0.373433 0.397829 0.259350
N8    N     N_1   0.103436 0.322525 0.355622 -0.260060
C47   C     C_1   0.073522 0.626536 0.602787 0.260210
N9    N     N_1   0.103379 0.677439 0.645199 -0.256999
C48   C     C_1   0.926479 0.373465 0.397215 0.260209
N10   N     N_1   0.896622 0.322563 0.354798 -0.256999

loop_
_geom_bond_atom_site_label_1
_geom_bond_atom_site_label_2
_ccdc_geom_bond_type
C15   C18   A    
C14   H14   S    
C11   C18   S    
C38   C48   S    
C43   N5    T    
C23   C41   S    
C20   O7    A    
Cu1   O1    S    
C4    C8    A    
C37   C47   S    
C47   N9    T    
Cu1   O7    S    
C45   N7    T    
C7    C11   A    
C13   C18   A    
C20   O6    A    
C19   C21   S    
C29   C32   A    
C3    C7    A    
C30   C31   A    
C31   C40   S    
Cu1   Cu2   S    
C32   C39   S    
C16   C17   A    
C23   C33   A    
C12   C17   S    
C23   C27   A    
C8    H10   S    
C25   C34   A    
C21   C22   T    
Cu2   O8    S    
C15   H15   S    
C14   C17   A    
C5    H7    S    
C1    C34   S    
C25   C29   A    
C5    N1    A    
C27   C31   A    
C6    N2    A    
C28   C32   A    
Cu1   N1    S    
Cu2   N2    S    
Cu1   O5    S    
C35   C45   S    
C24   C34   A    
C29   H3    S    
C44   N6    T    
C5    C9    A    
C26   C33   A    
C48   N10   T    
C8    C12   A    
C4    N2    A    
C26   C44   S    
C19   O8    A    
C16   H16   S    
C6    H8    S    
C9    C11   A    
C10   C12   A    
C2    C33   S    
C20   C22   S    
C26   C30   A    
C9    H11   S    
Cu1   O3    S    
C1    O4    A    
Cu2   O4    S    
C2    O3    A    
C4    H6    S    
Cu2   O2    S    
C35   C37   A    
C30   H4    S    
C36   C39   A    
C24   C28   A    
C36   C46   S    
C1    O1    A    
C6    C10   A    
C36   C38   A    
C35   C40   A    
C7    H9    S    
C42   N4    T    
C37   C39   A    
C38   C40   A    
C3    H5    S    
C28   H2    S    
C19   O5    A    
C25   C43   S    
C41   N3    T    
C10   H12   S    
C46   N8    T    
C27   H1    S    
C13   C16   A    
Cu2   O6    S    
C14   C15   A    
C2    O2    A    
C24   C42   S    
C13   H13   S    
C3    N1    A    
