data_str_m3_o4_o17_f0_pcu.sym.144
_audit_creation_date              2012-12-10T20:31:01-0500
_audit_creation_method            fapswitch 2.2
_symmetry_space_group_name_H-M    P1
_symmetry_Int_Tables_number       1
_space_group_crystal_system       triclinic
_cell_length_a                    14.928637
_cell_length_b                    10.723963
_cell_length_c                    9.922523
_cell_angle_alpha                 89.960765
_cell_angle_beta                  88.897222
_cell_angle_gamma                 90.812159
_cell_volume                      1588.08337918

loop_
_atom_site_label
_atom_site_type_symbol
_atom_type_description
_atom_site_fract_x
_atom_site_fract_y
_atom_site_fract_z
_atom_type_partial_charge
C1    C     C_R   0.500233 0.260641 0.499697 0.888963
C2    C     C_R   0.908686 0.615935 0.487765 0.054757
C3    C     C_R   0.953330 0.280700 0.575925 -0.073890
C4    C     C_R   0.045746 0.287543 0.595483 0.335662
C5    C     C_R   0.093388 0.397741 0.561259 0.020182
C6    C     C_R   0.047603 0.507076 0.525134 0.019799
C7    C     C_R   0.096134 0.619067 0.493557 -0.034127
C8    C     C_R   0.049741 0.732666 0.484231 -0.080581
C9    C     C_R   0.957079 0.729067 0.479262 -0.145728
C10   C     C_R   0.186430 0.399033 0.555570 -0.304212
C11   C     C_R   0.232370 0.503336 0.507676 -0.041618
C12   C     C_R   0.327395 0.499571 0.501539 0.931776
C13   C     C_R   0.189334 0.612065 0.472149 0.437259
C14   C     C_R   0.538787 0.064576 0.603885 -0.025895
C15   C     C_R   0.504702 0.129309 0.496157 -0.214504
C16   C     C_R   0.476763 0.066045 0.381128 -0.152519
C17   C     C_R   0.468806 0.938045 0.383289 0.470575
C18   C     C_R   0.497645 0.872383 0.498336 -0.215311
C19   C     C_R   0.537905 0.936847 0.604287 0.052565
C20   C     C_3   0.518647 0.931470 0.754026 -0.298905
C21   C     C_3   0.516866 0.074019 0.751333 0.257676
C22   C     C_R   0.439534 0.428657 0.071548 0.056357
C23   C     C_R   0.497059 0.739710 0.499984 0.979879
C24   C     C_R   0.567446 0.556571 0.067989 0.047568
C25   C     C_R   0.566714 0.556499 0.924725 -0.128679
C26   C     C_R   0.441708 0.425058 0.930141 0.304174
C27   C     C_3   0.342437 0.418734 0.920584 0.075131
C28   C     C_3   0.338309 0.426519 0.075912 -0.276921
C29   C     C_R   0.672749 0.501946 0.498957 0.929988
C30   C     C_R   0.815564 0.614067 0.474198 -0.128455
C31   C     C_R   0.768626 0.501625 0.497919 -0.222012
C32   C     C_R   0.811761 0.390651 0.533021 0.426233
C33   C     C_R   0.905784 0.390303 0.541445 -0.067723
C34   C     C_R   0.953817 0.504310 0.518659 0.006777
H1    H     H_    0.452374 0.887974 0.779472 0.145809
H2    H     H_    0.449364 0.112753 0.772764 0.196027
H3    H     H_    0.619360 0.603954 0.867658 0.202752
H4    H     H_    0.314937 0.499920 0.865517 0.135658
H5    H     H_    0.224594 0.316830 0.578772 0.178027
H6    H     H_    0.923036 0.817109 0.473843 0.195963
H7    H     H_    0.452557 0.115790 0.294382 0.231080
N1    N     N_R   0.499390 0.499140 0.142800 -0.133404
N2    N     N_R   0.499390 0.499180 0.857150 -0.151476
O1    O     O_R   0.500010 0.316790 0.614690 -0.584312
O2    O     O_R   0.500000 0.316760 0.385350 -0.635466
O3    O     O_R   0.367850 0.499990 0.614680 -0.642164
O4    O     O_R   0.367840 0.499950 0.385340 -0.604707
O5    O     O_R   0.500000 0.683240 0.614650 -0.624581
O6    O     O_R   0.499990 0.683210 0.385310 -0.541839
O7    O     O_R   0.632160 0.500050 0.614660 -0.577647
O8    O     O_R   0.632150 0.500010 0.385320 -0.622541
Zn1   Zn    Zn3+2 0.500010 0.500020 0.653130 1.026225
Zn2   Zn    Zn3+2 0.499990 0.499980 0.346870 1.045350
C35   C     C_2   0.766840 0.730057 0.439166 0.930032
O9    O     O_2   0.703342 0.763675 0.508789 -0.586911
O10   O     O_R   0.794677 0.801462 0.327599 -0.790820
H8    H     H_    0.756826 0.878228 0.315088 0.375176
O11   O     O_3   0.426274 0.882244 0.276827 -0.673033
H9    H     H_    0.385297 0.817544 0.315071 0.368243
C36   C     C_2   0.593884 0.879502 0.835448 1.008226
O12   O     O_2   0.657650 0.828989 0.780184 -0.583774
O13   O     O_R   0.591168 0.893408 0.975359 -0.717658
H10   H     H_    0.648363 0.865029 0.018452 0.359602
O14   O     O_3   0.584416 0.134556 0.825659 -0.673683
H11   H     H_    0.643638 0.118838 0.781986 0.372973
C37   C     C_2   0.643674 0.619261 0.131123 0.940122
O15   O     O_2   0.631303 0.702241 0.212917 -0.564264
O16   O     O_R   0.730644 0.588438 0.089870 -0.788622
H12   H     H_    0.778293 0.639074 0.137323 0.378401
O17   O     O_3   0.314591 0.303576 0.868058 -0.712155
H13   H     H_    0.248393 0.307636 0.863342 0.342092
C38   C     C_2   0.295317 0.548345 0.117386 0.922698
O18   O     O_2   0.214523 0.551947 0.139657 -0.576015
O19   O     O_R   0.346056 0.658843 0.116715 -0.767189
H14   H     H_    0.307620 0.734983 0.131134 0.366001
O20   O     O_3   0.762514 0.284645 0.567898 -0.753104
H15   H     H_    0.705704 0.281745 0.518155 0.332505
C39   C     C_2   0.301647 0.310971 0.148768 0.998833
O21   O     O_2   0.333742 0.208789 0.124751 -0.573127
O22   O     O_R   0.231950 0.320636 0.244223 -0.775057
H16   H     H_    0.214488 0.237355 0.286241 0.343254
C40   C     C_2   0.910166 0.155526 0.587858 1.133725
O23   O     O_2   0.912107 0.098451 0.694487 -0.557725
O24   O     O_R   0.869262 0.102065 0.475803 -0.749399
H17   H     H_    0.841092 0.017575 0.496866 0.348537
O25   O     O_3   0.088395 0.182233 0.640428 -0.734855
H18   H     H_    0.134191 0.208799 0.705747 0.350991
O26   O     O_3   0.239761 0.706206 0.411876 -0.780646
H19   H     H_    0.203407 0.743111 0.339900 0.346087
C41   C     C_2   0.093613 0.857698 0.491225 0.966806
O27   O     O_2   0.155105 0.876448 0.568696 -0.557500
O28   O     O_R   0.062648 0.954976 0.411400 -0.763771
H20   H     H_    0.098670 0.034964 0.422729 0.372010

loop_
_geom_bond_atom_site_label_1
_geom_bond_atom_site_label_2
_ccdc_geom_bond_type
C8    C9    A    
C37   O16   S    
C24   N1    A    
C19   C20   S    
C1    O2    A    
C25   N2    A    
C7    C8    A    
C21   H2    S    
C30   C35   S    
C26   C27   S    
C5    C6    A    
C14   C21   S    
N1    Zn2   S    
C30   C31   A    
C39   O22   S    
N2    Zn1   S    
C23   O6    A    
C4    O25   S    
C3    C33   A    
C27   H4    S    
C15   C16   A    
O3    Zn1   S    
O10   H8    S    
C36   O13   S    
C18   C19   A    
C21   O14   S    
C25   H3    S    
C20   H1    S    
O24   H17   S    
O16   H12   S    
O7    Zn1   S    
O17   H13   S    
C1    C15   S    
C20   C36   S    
C28   C39   S    
C24   C37   S    
C17   O11   S    
O4    Zn2   S    
C2    C34   A    
C37   O15   D    
O2    Zn2   S    
C22   C28   S    
C28   C38   S    
C12   O4    A    
C26   N2    A    
C33   C34   A    
C29   O7    A    
C35   O10   S    
O19   H14   S    
C18   C23   S    
O20   H15   S    
C38   O19   S    
O25   H18   S    
C38   O18   D    
O11   H9    S    
C9    H6    S    
C6    C34   A    
C36   O12   D    
O8    Zn2   S    
O13   H10   S    
C1    O1    A    
C41   O28   S    
C31   C32   A    
C7    C13   A    
C20   C21   S    
C3    C40   S    
C17   C18   A    
C24   C25   A    
C27   O17   S    
C12   O3    A    
C40   O24   S    
C8    C41   S    
C3    C4    A    
C29   O8    A    
C35   O9    D    
C23   O5    A    
C39   O21   D    
C14   C19   A    
O22   H16   S    
C32   O20   S    
C11   C12   S    
C6    C7    A    
C2    C30   A    
C32   C33   A    
C5    C10   A    
C29   C31   S    
O14   H11   S    
C11   C13   A    
O1    Zn1   S    
C41   O27   D    
C22   N1    A    
O6    Zn2   S    
C4    C5    A    
C13   O26   S    
O28   H20   S    
C10   C11   A    
O5    Zn1   S    
O26   H19   S    
C40   O23   D    
C22   C26   A    
C27   C28   S    
C14   C15   A    
C10   H5    S    
C2    C9    A    
C16   H7    S    
C16   C17   A    
