data_str_m10_o43_o44_f0_idkba.sym.56
_audit_creation_date              2012-12-11T15:12:30-0500
_audit_creation_method            fapswitch 2.2
_symmetry_space_group_name_H-M    P1
_symmetry_Int_Tables_number       1
_space_group_crystal_system       triclinic
_cell_length_a                    8.221128
_cell_length_b                    17.375626
_cell_length_c                    19.052094
_cell_angle_alpha                 94.319306
_cell_angle_beta                  94.389974
_cell_angle_gamma                 95.363189
_cell_volume                      2692.33622925

loop_
_atom_site_label
_atom_site_type_symbol
_atom_type_description
_atom_site_fract_x
_atom_site_fract_y
_atom_site_fract_z
_atom_type_partial_charge
Ba1   Ba    Ba6+2 0.157360 0.537160 0.466280 1.635986
Ba2   Ba    Ba6+2 0.652820 0.462830 0.533660 1.639250
C1    C     C_3   0.385846 0.736337 0.201803 -0.359624
C2    C     C_R   0.861238 0.746892 0.510737 0.056520
C3    C     C_R   0.918649 0.826735 0.518875 -0.114617
C4    C     C_3   0.928410 0.749845 0.313142 0.349210
C5    C     C_R   0.822426 0.882504 0.490719 -0.006229
C6    C     C_R   0.666503 0.857058 0.456202 -0.131990
C7    C     C_R   0.609807 0.777634 0.449083 0.014736
C8    C     C_R   0.889429 0.173690 0.483408 -0.117759
C9    C     C_R   0.946980 0.253534 0.491175 0.059716
C10   C     C_R   0.197022 0.223015 0.554297 0.009130
C11   C     C_R   0.140204 0.143609 0.547352 -0.128338
C12   C     C_3   0.401380 0.709401 0.275849 0.352104
C13   C     C_R   0.984649 0.118090 0.512515 -0.009455
C14   C     C_1   0.926915 0.034981 0.504726 0.006243
C15   C     C_1   0.880182 0.965612 0.498565 0.005682
C16   C     C_3   0.950366 0.832010 0.290698 -0.359477
C17   C     C_R   0.097437 0.277172 0.528767 -0.293650
C18   C     C_R   0.611603 0.535359 0.298887 -0.287923
C19   C     C_R   0.460623 0.494194 0.276803 0.068227
C20   C     C_R   0.405951 0.485801 0.204801 -0.123351
C21   C     C_R   0.503740 0.517648 0.154331 -0.018029
C22   C     C_R   0.659585 0.556345 0.177592 -0.138429
C23   C     C_3   0.536437 0.696523 0.631738 0.291158
C24   C     C_R   0.714008 0.563638 0.249595 0.014754
C25   C     C_R   0.476745 0.568744 0.034187 -0.076656
C26   C     C_R   0.424102 0.559772 0.962138 -0.074888
C27   C     C_R   0.340300 0.489542 0.931210 0.058518
C28   C     C_3   0.772877 0.372654 0.320820 0.317054
C29   C     C_R   0.308558 0.428887 0.974673 -0.077587
C30   C     C_R   0.360890 0.437958 0.046899 -0.074194
C31   C     C_R   0.446244 0.507966 0.077584 0.062065
C32   C     C_R   0.135439 0.440009 0.827742 -0.134650
C33   C     C_R   0.087447 0.433482 0.754951 0.017813
C34   C     C_3   0.565066 0.784209 0.648912 -0.282163
C35   C     C_R   0.342191 0.505721 0.733184 0.035639
C36   C     C_R   0.391226 0.512720 0.805502 -0.119157
C37   C     C_R   0.289066 0.479538 0.853842 -0.009653
C38   C     C_R   0.194124 0.463605 0.708154 -0.277769
C39   C     C_3   0.749352 0.352110 0.241424 -0.384096
C40   C     C_3   0.030364 0.625326 0.679006 0.310840
C41   C     C_3   0.052079 0.645079 0.758551 -0.375277
C42   C     C_3   0.268606 0.304965 0.380579 0.293028
C43   C     C_3   0.246458 0.217324 0.362200 -0.285659
C44   C     C_1   0.403815 0.187596 0.349304 0.328786
C45   C     C_3   0.875144 0.247902 0.685849 0.341828
C46   C     C_1   0.703413 0.804699 0.702482 0.325319
C47   C     C_1   0.318069 0.195696 0.807882 0.298034
C48   C     C_3   0.843280 0.165170 0.705998 -0.346135
C49   C     C_3   0.404623 0.291096 0.725191 0.347942
C50   C     C_3   0.425884 0.266236 0.800179 -0.249136
C51   C     C_R   0.709170 0.723466 0.474611 -0.291362
H1    H     H_    0.316498 0.655958 0.276828 0.094974
H2    H     H_    0.148997 0.324447 0.392596 0.003971
H3    H     H_    0.357647 0.318599 0.427762 0.056447
H4    H     H_    0.258587 0.750079 0.188182 0.149360
H5    H     H_    0.159991 0.203230 0.314267 0.100851
H6    H     H_    0.194830 0.187715 0.406116 0.027596
H7    H     H_    0.529504 0.695997 0.287600 -0.058522
H8    H     H_    0.415581 0.689761 0.163148 0.070156
H9    H     H_    0.652322 0.674327 0.616634 0.002874
H10   H     H_    0.442586 0.685007 0.586134 0.060292
H11   H     H_    0.592430 0.812839 0.600496 0.026040
H12   H     H_    0.648372 0.304847 0.228772 0.133335
H13   H     H_    0.452957 0.806252 0.668581 0.104745
H14   H     H_    0.472122 0.788869 0.198662 0.112948
H15   H     H_    0.915166 0.873269 0.332954 0.075469
H16   H     H_    0.805492 0.252398 0.634287 0.089819
H17   H     H_    0.008296 0.259897 0.680400 -0.054835
H18   H     H_    0.710094 0.150249 0.709658 0.151583
H19   H     H_    0.886264 0.124339 0.665392 0.077149
H20   H     H_    0.909977 0.158914 0.757824 0.137016
H21   H     H_    0.274535 0.301316 0.713035 -0.081799
H22   H     H_    0.482802 0.346459 0.723423 0.089212
H23   H     H_    0.718381 0.403182 0.213700 0.060991
H24   H     H_    0.395175 0.313362 0.838070 0.033196
H25   H     H_    0.555167 0.255166 0.813152 0.124901
H26   H     H_    0.006657 0.747548 0.362948 0.091855
H27   H     H_    0.772880 0.154949 0.453920 0.108179
H28   H     H_    0.588826 0.898707 0.435810 0.083367
H29   H     H_    0.217898 0.101982 0.567772 0.083293
H30   H     H_    0.036034 0.845283 0.547810 0.090343
H31   H     H_    0.664101 0.662611 0.469467 0.073461
H32   H     H_    0.142381 0.338042 0.533997 0.070444
H33   H     H_    0.507682 0.544984 0.823835 0.077285
H34   H     H_    0.864165 0.332706 0.222116 0.125364
H35   H     H_    0.447698 0.608389 0.930756 0.066345
H36   H     H_    0.539812 0.623787 0.056131 0.064638
H37   H     H_    0.797759 0.736407 0.322861 -0.061507
H38   H     H_    0.288006 0.453938 0.188353 0.085314
H39   H     H_    0.246247 0.373749 0.952537 0.066129
H40   H     H_    0.337445 0.389448 0.078425 0.063095
H41   H     H_    0.051065 0.417229 0.863786 0.076038
H42   H     H_    0.740730 0.578148 0.139872 0.078254
H43   H     H_    0.156416 0.459344 0.652203 0.062692
H44   H     H_    0.654413 0.540585 0.354330 0.069745
H45   H     H_    0.144837 0.606028 0.660553 -0.001443
H46   H     H_    0.080452 0.847737 0.281219 0.149317
H47   H     H_    0.871421 0.836507 0.241493 0.113565
H48   H     H_    0.656393 0.389105 0.339669 0.005064
H49   H     H_    0.869567 0.421993 0.331984 0.062748
H50   H     H_    0.929785 0.578033 0.666984 0.073559
H51   H     H_    0.158167 0.689494 0.772293 0.133886
H52   H     H_    0.073856 0.592801 0.786230 0.058185
H53   H     H_    0.939609 0.667947 0.776992 0.138239
N1    N     N_1   0.527772 0.164136 0.339060 -0.287903
N2    N     N_1   0.812593 0.820897 0.744664 -0.277953
N3    N     N_1   0.233300 0.140001 0.813969 -0.291611
O1    O     O_2   0.143190 0.684560 0.534150 -0.458188
O2    O     O_2   0.750441 0.442285 0.750648 -0.489953
O3    O     O_3   0.823365 0.299169 0.738282 -0.598899
O4    O     O_3   0.882350 0.590230 0.535560 -0.493510
O5    O     O_3   0.431150 0.462160 0.416880 -0.487534
O6    O     O_2   0.634060 0.535220 0.669530 -0.456819
O7    O     O_3   0.481220 0.661367 0.690767 -0.644931
O8    O     O_2   0.535211 0.224348 0.547240 -0.491072
O9    O     O_3   0.453257 0.233870 0.677142 -0.601610
O10   O     O_3   0.372640 0.639320 0.408320 -0.490369
O11   O     O_2   0.270893 0.775092 0.452798 -0.489504
O12   O     O_3   0.322945 0.341120 0.322269 -0.640567
O13   O     O_3   0.994108 0.691981 0.646877 -0.627504
O14   O     O_3   0.360121 0.768025 0.324267 -0.600271
O15   O     O_2   0.176230 0.464730 0.330450 -0.462601
O16   O     O_3   0.952380 0.601530 0.373300 -0.491683
O17   O     O_2   0.051055 0.555008 0.248303 -0.490241
O18   O     O_3   0.975355 0.698136 0.259795 -0.599756
O19   O     O_2   0.667110 0.315390 0.465830 -0.457593
O20   O     O_3   0.927950 0.409760 0.464380 -0.497268
O21   O     O_3   0.437660 0.360670 0.591630 -0.482575
O22   O     O_3   0.817939 0.307440 0.353126 -0.622063
O23   O     O_3   0.379150 0.537830 0.583060 -0.476220
O24   O     O_3   0.857920 0.398470 0.626650 -0.489410
P1    P     P_3+3 0.970290 0.672580 0.555000 0.991145
P2    P     P_3+3 0.347000 0.441860 0.341200 0.986634
P3    P     P_3+3 0.923627 0.603402 0.281597 0.942891
P4    P     P_3+3 0.840010 0.327410 0.444950 0.998112
P5    P     P_3+3 0.879825 0.394222 0.718515 0.944928
P6    P     P_3+3 0.403122 0.740824 0.409808 0.946657
P7    P     P_3+3 0.456592 0.560723 0.671129 0.950837
P8    P     P_3+3 0.405827 0.259437 0.591416 0.948852

loop_
_geom_bond_atom_site_label_1
_geom_bond_atom_site_label_2
_ccdc_geom_bond_type
C2    C51   A    
C7    P6    S    
C49   H21   S    
C23   H10   S    
O19   P4    D    
Ba1   O23   S    
C40   H50   S    
C49   O9    S    
C5    C6    A    
C43   C44   S    
C25   C31   A    
C9    C17   A    
Ba1   O4    S    
C36   H33   S    
C51   H31   S    
C47   N3    T    
C26   C27   A    
C22   C24   A    
C4    O18   S    
C32   C33   A    
C35   C38   A    
Ba1   O20   S    
C8    C13   A    
C40   H45   S    
C33   P5    S    
C41   H52   S    
C36   C37   A    
C3    H30   S    
Ba2   O4    S    
C34   H13   S    
Ba1   O5    S    
C16   H15   S    
C28   O22   S    
O14   P6    S    
C42   O12   S    
Ba2   O20   S    
C10   P8    S    
C28   H48   S    
Ba1   Ba2   S    
Ba1   O10   S    
C6    H28   S    
O21   P8    S    
C48   H19   S    
C41   H51   S    
O13   P1    S    
C45   H16   S    
C18   H44   S    
C14   C15   T    
C5    C15   S    
C35   P7    S    
C26   H35   S    
Ba2   O23   S    
C20   H38   S    
C28   C39   S    
C34   C46   S    
O5    P2    S    
O9    P8    S    
C30   H40   S    
O17   P3    D    
O24   P5    S    
C19   C20   A    
C28   H49   S    
C16   H47   S    
C38   H43   S    
C50   H25   S    
C45   C48   S    
C1    H8    S    
C39   H34   S    
C4    C16   S    
C43   H5    S    
Ba2   O24   S    
C13   C14   S    
C32   C37   A    
O3    P5    S    
O18   P3    S    
C23   O7    S    
C3    C5    A    
C8    H27   S    
C6    C7    A    
C39   H12   S    
C21   C31   S    
C4    H37   S    
C11   H29   S    
C49   C50   S    
C41   H53   S    
O8    P8    D    
C48   H18   S    
C45   H17   S    
C35   C36   A    
O22   P4    S    
Ba1   O1    S    
Ba2   O6    S    
C42   H3    S    
C29   C30   A    
C21   C22   A    
C47   C50   S    
C44   N1    T    
C27   C37   S    
O11   P6    D    
O12   P2    S    
C1    C12   S    
C1    H4    S    
O16   P3    S    
C12   H1    S    
O4    P1    S    
C11   C13   A    
O1    P1    D    
C7    C51   A    
C40   C41   S    
C50   H24   S    
Ba1   P1    S    
C42   C43   S    
C40   O13   S    
C2    P1    S    
C43   H6    S    
C12   O14   S    
O15   P2    D    
C18   C19   A    
Ba2   P4    S    
C1    H14   S    
C32   H41   S    
C49   H22   S    
C2    C3    A    
C17   H32   S    
O23   P7    S    
C12   H7    S    
Ba1   O16   S    
O10   P6    S    
C30   C31   A    
C33   C38   A    
C9    P4    S    
Ba1   O15   S    
C27   C29   A    
Ba1   P2    S    
C22   H42   S    
C39   H23   S    
Ba2   O5    S    
C42   H2    S    
C4    H26   S    
C46   N2    T    
C18   C24   A    
C48   H20   S    
C10   C17   A    
Ba2   O21   S    
C25   H36   S    
C23   H9    S    
C24   P3    S    
C8    C9    A    
C23   C34   S    
O20   P4    S    
C10   C11   A    
C29   H39   S    
C16   H46   S    
C25   C26   A    
C20   C21   A    
C34   H11   S    
O6    P7    D    
C19   P2    S    
C45   O3    S    
O2    P5    D    
O7    P7    S    
Ba2   O19   S    
