data_str_m3_o3_o10_f0_pcu.sym.170
_audit_creation_date              2012-12-10T20:03:09-0500
_audit_creation_method            fapswitch 2.2
_symmetry_space_group_name_H-M    P1
_symmetry_Int_Tables_number       1
_space_group_crystal_system       triclinic
_cell_length_a                    8.587304
_cell_length_b                    19.31039
_cell_length_c                    18.458484
_cell_angle_alpha                 89.830973
_cell_angle_beta                  98.717922
_cell_angle_gamma                 90.248914
_cell_volume                      3025.46285521

loop_
_atom_site_label
_atom_site_type_symbol
_atom_type_description
_atom_site_fract_x
_atom_site_fract_y
_atom_site_fract_z
_atom_type_partial_charge
C1    C     C_R   0.502609 0.365724 0.500378 0.899164
C2    C     C_R   0.497392 0.634276 0.499622 0.899161
C3    C     C_R   0.641093 0.963535 0.501600 -0.162898
C4    C     C_R   0.358927 0.036464 0.498399 -0.162897
C5    C     C_R   0.642790 0.035251 0.499746 -0.083675
C6    C     C_R   0.357230 0.964749 0.500254 -0.083672
C7    C     C_R   0.501657 0.071516 0.498000 0.158388
C8    C     C_R   0.498363 0.928484 0.501999 0.158385
C9    C     C_R   0.601225 0.541506 0.733963 0.746092
C10   C     C_R   0.398773 0.458495 0.266037 0.746091
C11   C     C_R   0.601940 0.541195 0.810037 -0.261809
C12   C     C_R   0.398058 0.458806 0.189963 -0.261809
C13   C     C_R   0.497563 0.498085 0.841335 0.065599
C14   C     C_R   0.502437 0.501915 0.158665 0.065599
C15   C     C_R   0.393898 0.455351 0.793839 -0.079241
C16   C     C_R   0.606104 0.544648 0.206161 -0.079242
C17   C     C_R   0.397841 0.457365 0.717919 -0.140188
C18   C     C_R   0.602161 0.542634 0.282081 -0.140187
C19   C     C_R   0.360143 0.511685 0.952240 -0.323106
C20   C     C_R   0.639857 0.488314 0.047760 -0.323106
C21   C     C_R   0.360619 0.512723 0.028382 0.679860
C22   C     C_R   0.639381 0.487276 0.971618 0.679861
C23   C     C_R   0.200848 0.499988 0.480863 0.972409
C24   C     C_R   0.799152 0.500012 0.519137 0.972408
C25   C     C_R   0.500974 0.501302 0.077221 -0.103809
C26   C     C_R   0.499026 0.498697 0.922779 -0.103810
C27   C     C_2   0.035822 0.500097 0.470493 -0.369144
C28   C     C_2   0.964178 0.499903 0.529507 -0.369145
C29   C     C_R   0.416398 0.746997 0.438534 -0.161917
C30   C     C_R   0.583603 0.253003 0.561466 -0.161917
C31   C     C_R   0.418418 0.818976 0.440596 0.613059
C32   C     C_R   0.581590 0.181024 0.559404 0.613063
C33   C     C_R   0.496125 0.853428 0.502430 -0.107204
C34   C     C_R   0.503894 0.146572 0.497569 -0.107204
C35   C     C_R   0.571209 0.816172 0.563288 -0.069675
C36   C     C_R   0.428814 0.183827 0.436710 -0.069680
C37   C     C_R   0.569187 0.744371 0.561304 -0.210542
C38   C     C_R   0.430829 0.255628 0.438695 -0.210544
C39   C     C_R   0.493771 0.709497 0.499211 -0.183701
C40   C     C_R   0.506234 0.290503 0.500789 -0.183703
H1    H     H_    0.973752 0.500377 0.414532 0.193757
H2    H     H_    0.026248 0.499623 0.585468 0.193757
H3    H     H_    0.319617 0.424511 0.681246 0.167393
H4    H     H_    0.680387 0.575488 0.318755 0.167393
H5    H     H_    0.251013 0.521794 0.916084 0.215509
H6    H     H_    0.748988 0.478206 0.083916 0.215508
H7    H     H_    0.628169 0.715527 0.608019 0.211640
H8    H     H_    0.371852 0.284471 0.391979 0.211640
H9    H     H_    0.750105 0.935305 0.502359 0.145702
H10   H     H_    0.249915 0.064695 0.497640 0.145701
H11   H     H_    0.753224 0.062533 0.499451 0.150345
H12   H     H_    0.246796 0.937468 0.500549 0.150347
H13   H     H_    0.682694 0.575003 0.844325 0.203942
H14   H     H_    0.317302 0.424998 0.155674 0.203943
N1    N     N_R   0.500020 0.499980 0.689440 -0.148066
N2    N     N_R   0.499980 0.500020 0.310560 -0.148066
O1    O     O_R   0.500010 0.398180 0.560840 -0.633626
O2    O     O_R   0.499990 0.601820 0.439160 -0.633625
O3    O     O_R   0.499930 0.398180 0.439210 -0.578674
O4    O     O_R   0.500070 0.601820 0.560790 -0.578671
O5    O     O_R   0.271780 0.500000 0.546590 -0.633162
O6    O     O_R   0.728220 0.500000 0.453410 -0.633162
O7    O     O_R   0.271710 0.499990 0.424960 -0.574258
O8    O     O_R   0.728290 0.500010 0.575040 -0.574260
Zn1   Zn    Zn3+2 0.500050 0.500000 0.581210 1.011048
Zn2   Zn    Zn3+2 0.499950 0.500000 0.418790 1.011048
C41   C     C_1   0.286965 0.407662 0.821447 0.219279
N3    N     N_1   0.201169 0.369422 0.843559 -0.128712
C42   C     C_1   0.713040 0.592335 0.178553 0.219278
N4    N     N_1   0.798838 0.630574 0.156442 -0.128711
F1    F     F_    0.224321 0.526417 0.054322 -0.626656
F2    F     F_    0.775679 0.473583 0.945678 -0.626656
C43   C     C_1   0.330336 0.713161 0.374808 0.311195
N5    N     N_1   0.261462 0.686103 0.323829 -0.154503
C44   C     C_1   0.669656 0.286840 0.625194 0.311198
N6    N     N_1   0.738524 0.313898 0.676174 -0.154503
F3    F     F_    0.346151 0.855774 0.382102 -0.649158
F4    F     F_    0.653852 0.144228 0.617899 -0.649159
C45   C     C_1   0.648687 0.850490 0.628497 0.220216
N7    N     N_1   0.710721 0.878004 0.680691 -0.143509
C46   C     C_1   0.351353 0.149508 0.371499 0.220219
N8    N     N_1   0.289332 0.121993 0.319303 -0.143508
F5    F     F_    0.702049 0.583583 0.704639 -0.657364
F6    F     F_    0.297947 0.416419 0.295360 -0.657363

loop_
_geom_bond_atom_site_label_1
_geom_bond_atom_site_label_2
_ccdc_geom_bond_type
C30   C32   A    
C43   N5    T    
C46   N8    T    
C3    H9    S    
C21   F1    S    
C19   C21   A    
C1    O1    A    
C1    O3    A    
O3    Zn2   S    
C2    O4    A    
C29   C43   S    
C20   C25   A    
C35   C45   S    
C19   C26   A    
C1    C40   S    
C2    C39   S    
O2    Zn2   S    
C31   C33   A    
C9    N1    A    
C23   C27   S    
C37   H7    S    
C10   N2    A    
C17   N1    A    
C38   H8    S    
C11   H13   S    
C18   N2    A    
C23   O7    A    
O7    Zn2   S    
C24   O8    A    
C4    C7    A    
C22   F2    S    
N1    Zn1   S    
C31   F3    S    
C37   C39   A    
O6    Zn2   S    
C41   N3    T    
C4    C6    A    
C3    C8    A    
O1    Zn1   S    
C5    C7    A    
C6    C8    A    
C4    H10   S    
C32   C34   A    
C44   N6    T    
C17   H3    S    
C18   H4    S    
C27   H1    S    
C36   C46   S    
C15   C41   S    
C29   C39   A    
C19   H5    S    
C30   C40   A    
C9    C11   A    
C10   C12   A    
C9    F5    S    
C20   C22   A    
O4    Zn1   S    
C13   C15   A    
C7    C34   S    
C14   C16   A    
C13   C26   S    
C15   C17   A    
C21   C25   A    
C24   O6    A    
C28   H2    S    
C35   C37   A    
C16   C42   S    
C24   C28   S    
C12   C14   A    
C3    C5    A    
C2    O2    A    
O8    Zn1   S    
C36   C38   A    
C29   C31   A    
C38   C40   A    
C30   C44   S    
C11   C13   A    
N2    Zn2   S    
C10   F6    S    
C33   C35   A    
C34   C36   A    
C8    C33   S    
C14   C25   S    
C42   N4    T    
C20   H6    S    
C32   F4    S    
C45   N7    T    
O5    Zn1   S    
C23   O5    A    
C16   C18   A    
C22   C26   A    
C27   C28   D    
C5    H11   S    
C6    H12   S    
C12   H14   S    
