data_str_m3_o2_o26_f0_pcu.sym.194
_audit_creation_date              2012-12-10T19:55:06-0500
_audit_creation_method            fapswitch 2.2
_symmetry_space_group_name_H-M    P1
_symmetry_Int_Tables_number       1
_space_group_crystal_system       triclinic
_cell_length_a                    14.136433
_cell_length_b                    15.024135
_cell_length_c                    16.665899
_cell_angle_alpha                 90.075349
_cell_angle_beta                  84.814684
_cell_angle_gamma                 89.410716
_cell_volume                      3524.95057891

loop_
_atom_site_label
_atom_site_type_symbol
_atom_type_description
_atom_site_fract_x
_atom_site_fract_y
_atom_site_fract_z
_atom_type_partial_charge
C1    C     C_R   0.499291 0.672177 0.500919 0.876115
C2    C     C_R   0.500661 0.327450 0.500203 0.884255
C3    C     C_R   0.418763 0.907933 0.533651 -0.253385
C4    C     C_R   0.577230 0.089534 0.520469 -0.247653
C5    C     C_R   0.419153 0.815742 0.538784 0.216839
C6    C     C_R   0.580627 0.181689 0.522012 0.207101
C7    C     C_R   0.497602 0.767897 0.501296 -0.061919
C8    C     C_R   0.502155 0.231113 0.498425 -0.077070
C9    C     C_R   0.574528 0.812093 0.461132 -0.257135
C10   C     C_R   0.423011 0.187484 0.472620 -0.249308
C11   C     C_R   0.573793 0.903709 0.457345 -0.181541
C12   C     C_R   0.421231 0.095725 0.470308 -0.182636
C13   C     C_R   0.496151 0.951361 0.493762 0.099413
C14   C     C_R   0.498341 0.047098 0.494160 0.100191
C15   C     C_R   0.889133 0.550069 0.555125 -0.299864
C16   C     C_R   0.104850 0.421346 0.500453 -0.295434
C17   C     C_R   0.789834 0.549171 0.555109 -0.003381
C18   C     C_R   0.204095 0.421887 0.501181 -0.007003
C19   C     C_R   0.801051 0.451258 0.443513 -0.062786
C20   C     C_R   0.204436 0.579038 0.498304 -0.060766
C21   C     C_R   0.901208 0.450112 0.440626 0.118079
C22   C     C_R   0.104701 0.582168 0.496944 0.119378
C23   C     C_R   0.486625 0.495643 0.653338 0.870834
C24   C     C_R   0.513403 0.500024 0.346392 0.874495
C25   C     C_R   0.946760 0.500458 0.497685 0.113430
C26   C     C_R   0.053250 0.501679 0.498226 0.116476
C27   C     C_R   0.476701 0.468252 0.737245 -0.071846
C28   C     C_R   0.521927 0.488202 0.259525 -0.065606
C29   C     C_R   0.536912 0.401404 0.764713 0.192746
C30   C     C_R   0.449137 0.517984 0.213286 0.208256
C31   C     C_R   0.519518 0.369416 0.842970 -0.228645
C32   C     C_R   0.448983 0.488097 0.134196 -0.227011
C33   C     C_R   0.445077 0.405279 0.894419 0.169394
C34   C     C_R   0.520759 0.430167 0.100916 0.172300
C35   C     C_R   0.382626 0.467867 0.865682 -0.167571
C36   C     C_R   0.596649 0.407104 0.145018 -0.181317
C37   C     C_R   0.398218 0.499083 0.787282 -0.255249
C38   C     C_R   0.597120 0.435645 0.224185 -0.256385
C39   C     C_2   0.441978 0.391741 0.981161 -0.229701
C40   C     C_2   0.522198 0.400620 0.017343 -0.215800
H1    H     H_    0.920799 0.588918 0.600278 0.161849
H2    H     H_    0.068409 0.358235 0.502294 0.159318
H3    H     H_    0.746396 0.587916 0.599378 0.131256
H4    H     H_    0.242133 0.359298 0.502835 0.136507
H5    H     H_    0.653706 0.412714 0.259016 0.157088
H6    H     H_    0.349917 0.548350 0.765972 0.156115
H7    H     H_    0.591105 0.397636 0.982709 0.150189
H8    H     H_    0.373253 0.395466 0.015972 0.147111
H9    H     H_    0.324909 0.496082 0.905210 0.129121
H10   H     H_    0.654055 0.364946 0.118889 0.133390
H11   H     H_    0.393629 0.511829 0.098504 0.124631
H12   H     H_    0.566488 0.319142 0.864579 0.132438
H13   H     H_    0.359873 0.945865 0.563186 0.132585
H14   H     H_    0.636060 0.050971 0.540237 0.136921
N1    N     N_R   0.747530 0.500020 0.500000 -0.088189
N2    N     N_R   0.252470 0.499980 0.500000 -0.094320
O1    O     O_R   0.420520 0.630930 0.499990 -0.598979
O2    O     O_R   0.579480 0.369070 0.500010 -0.577789
O3    O     O_R   0.579480 0.630940 0.499990 -0.628545
O4    O     O_R   0.420520 0.369060 0.500010 -0.643071
O5    O     O_R   0.411130 0.500010 0.615800 -0.611236
O6    O     O_R   0.588870 0.499990 0.384200 -0.634157
O7    O     O_R   0.570080 0.500020 0.615800 -0.594116
O8    O     O_R   0.429920 0.499980 0.384200 -0.578896
Zn1   Zn    Zn3+2 0.393860 0.499990 0.500000 0.960138
Zn2   Zn    Zn3+2 0.606140 0.500010 0.500000 0.953191
N3    N     N_2   0.611984 0.363075 0.712931 -0.282271
H15   H     H_    0.613175 0.294482 0.715229 0.208916
C41   C     C_3   0.704413 0.399826 0.722777 -0.741432
H16   H     H_    0.757002 0.372757 0.675189 0.239213
H17   H     H_    0.727362 0.381632 0.782720 0.210859
H18   H     H_    0.702668 0.473479 0.717189 0.246056
N4    N     N_2   0.374721 0.575563 0.246414 -0.291034
H19   H     H_    0.313089 0.572422 0.217789 0.215773
C42   C     C_3   0.403158 0.666297 0.259620 -0.772655
H20   H     H_    0.341940 0.704651 0.289009 0.234673
H21   H     H_    0.426633 0.698260 0.201188 0.229931
H22   H     H_    0.461676 0.668463 0.299739 0.233277
H23   H     H_    0.765742 0.413803 0.399681 0.121057
H24   H     H_    0.243540 0.640477 0.496800 0.154343
N5    N     N_2   0.954655 0.398434 0.380497 -0.315220
H25   H     H_    0.918911 0.343674 0.361868 0.215574
C43   C     C_3   0.997139 0.449227 0.313146 -0.795225
H26   H     H_    0.037884 0.403752 0.269930 0.236990
H27   H     H_    0.047110 0.499082 0.333646 0.257944
H28   H     H_    0.941104 0.483506 0.281648 0.231617
N6    N     N_2   0.057598 0.666172 0.494088 -0.314416
H29   H     H_    0.092265 0.717058 0.520537 0.214273
C44   C     C_3   0.030767 0.690613 0.415269 -0.795141
H30   H     H_    0.993950 0.756328 0.418924 0.236540
H31   H     H_    0.981224 0.641266 0.393290 0.257517
H32   H     H_    0.094878 0.695310 0.371706 0.231924
N7    N     N_2   0.341703 0.772071 0.582444 -0.304317
H33   H     H_    0.277732 0.805761 0.582338 0.207699
C45   C     C_3   0.360305 0.743614 0.662483 -0.779438
H34   H     H_    0.371497 0.802383 0.700946 0.230648
H35   H     H_    0.423954 0.699433 0.660207 0.234304
H36   H     H_    0.298600 0.705778 0.690002 0.230380
N8    N     N_2   0.661447 0.223561 0.549711 -0.279770
H37   H     H_    0.680358 0.197344 0.603232 0.209248
C46   C     C_3   0.742087 0.227493 0.489903 -0.767304
H38   H     H_    0.770524 0.159469 0.475760 0.217708
H39   H     H_    0.798901 0.267705 0.513605 0.231724
H40   H     H_    0.721378 0.259071 0.433762 0.241889
H41   H     H_    0.634579 0.775686 0.431715 0.166291
H42   H     H_    0.362671 0.224252 0.453531 0.161184
H43   H     H_    0.633575 0.937564 0.426070 0.140384
H44   H     H_    0.360095 0.062603 0.449714 0.137445

loop_
_geom_bond_atom_site_label_1
_geom_bond_atom_site_label_2
_ccdc_geom_bond_type
C40   H7    S    
N6    H29   S    
N7    H33   S    
C27   C29   A    
C11   C13   A    
N4    H19   S    
C45   H34   S    
C31   H12   S    
C20   N2    A    
N5    H25   S    
C45   H36   S    
C33   C39   S    
C34   C40   S    
C35   C37   A    
C1    O1    A    
C1    O3    A    
O3    Zn2   S    
C2    O4    A    
C15   C25   A    
C9    H41   S    
N2    Zn1   S    
C7    C9    A    
C41   H17   S    
C38   H5    S    
C29   N3    S    
O2    Zn2   S    
C43   H26   S    
C35   H9    S    
C31   C33   A    
C23   C27   S    
C44   H31   S    
C17   N1    A    
C3    C13   A    
C18   N2    A    
C23   O7    A    
O7    Zn2   S    
C24   O8    A    
C13   C14   S    
N4    C42   S    
N5    C43   S    
C16   C26   A    
O6    Zn2   S    
N3    H15   S    
C46   H38   S    
C15   H1    S    
C4    C6    A    
O1    Zn1   S    
C39   C40   D    
C12   H44   S    
C30   N4    S    
C20   H24   S    
C6    C8    A    
C25   C26   S    
N3    C41   S    
C32   C34   A    
C41   H18   S    
C42   H20   S    
C17   H3    S    
C32   H11   S    
C18   H4    S    
C9    C11   A    
N8    H37   S    
C28   C38   A    
C2    O2    A    
C16   C18   A    
C22   N6    S    
C44   H32   S    
C19   H23   S    
C42   H21   S    
C10   C12   A    
C8    C10   A    
C43   H27   S    
C20   C22   A    
O4    Zn1   S    
C46   H40   S    
N6    C44   S    
C11   H43   S    
C10   H42   S    
C16   H2    S    
N1    Zn2   S    
C36   H10   S    
C5    C7    A    
C19   N1    A    
C15   C17   A    
C21   C25   A    
C37   H6    S    
C24   O6    A    
C4    H14   S    
C1    C7    S    
C2    C8    S    
C24   C28   S    
C21   N5    S    
C3    C5    A    
C5    N7    S    
C45   H35   S    
C6    N8    S    
C28   C30   A    
C12   C14   A    
C29   C31   A    
O8    Zn1   S    
C30   C32   A    
C3    H13   S    
N7    C45   S    
C27   C37   A    
C36   C38   A    
C33   C35   A    
C34   C36   A    
C4    C14   A    
C41   H16   S    
C42   H22   S    
O5    Zn1   S    
C23   O5    A    
C43   H28   S    
C46   H39   S    
C22   C26   A    
C44   H30   S    
N8    C46   S    
C39   H8    S    
C19   C21   A    
