data_str_m3_o19_o26_f0_pcu.sym.121
_audit_creation_date              2012-12-10T18:40:27-0500
_audit_creation_method            fapswitch 2.2
_symmetry_space_group_name_H-M    P1
_symmetry_Int_Tables_number       1
_space_group_crystal_system       triclinic
_cell_length_a                    10.783339
_cell_length_b                    11.572501
_cell_length_c                    16.826803
_cell_angle_alpha                 89.979789
_cell_angle_beta                  83.871851
_cell_angle_gamma                 90.038751
_cell_volume                      2087.82029073

loop_
_atom_site_label
_atom_site_type_symbol
_atom_type_description
_atom_site_fract_x
_atom_site_fract_y
_atom_site_fract_z
_atom_type_partial_charge
C1    C     C_R   0.500038 0.718823 0.499972 0.939272
C2    C     C_R   0.499990 0.281180 0.499883 0.960621
C3    C     C_1   0.500105 0.838949 0.499912 -0.102060
C4    C     C_1   0.499971 0.161062 0.499867 -0.090934
C5    C     C_1   0.500095 0.940846 0.499878 0.055157
C6    C     C_1   0.500030 0.059168 0.499865 0.053052
C7    C     C_1   0.930225 0.499991 0.500006 0.086759
C8    C     C_1   0.069772 0.499994 0.499997 0.110564
C9    C     C_R   0.481327 0.498246 0.653476 1.044936
C10   C     C_R   0.518627 0.501703 0.346547 1.045693
C11   C     C_R   0.465170 0.498880 0.740001 -0.433803
C12   C     C_R   0.534422 0.526847 0.261860 -0.414873
C13   C     C_R   0.380256 0.578356 0.778343 0.546634
C14   C     C_R   0.471130 0.623536 0.235838 0.559842
C15   C     C_R   0.370425 0.590039 0.860646 0.660128
C16   C     C_R   0.485462 0.654461 0.155996 0.565460
C17   C     C_R   0.445395 0.522510 0.904697 -0.312017
C18   C     C_R   0.562012 0.588182 0.101740 -0.299200
C19   C     C_R   0.525940 0.439051 0.867674 0.604775
C20   C     C_R   0.633304 0.497140 0.127676 0.700191
C21   C     C_R   0.536509 0.425673 0.784784 -0.250358
C22   C     C_R   0.619841 0.464624 0.208249 -0.263829
C23   C     C_2   0.445953 0.541895 0.990014 0.015984
C24   C     C_2   0.545936 0.595709 0.017112 0.013243
N1    N     N_1   0.819370 0.500000 0.500010 -0.070694
N2    N     N_1   0.180630 0.500000 0.499990 -0.060183
O1    O     O_R   0.397470 0.665550 0.500010 -0.575581
O2    O     O_R   0.602530 0.334450 0.499990 -0.586944
O3    O     O_R   0.602530 0.665550 0.499990 -0.623857
O4    O     O_R   0.397470 0.334450 0.500010 -0.628414
O5    O     O_R   0.385350 0.500000 0.615800 -0.570759
O6    O     O_R   0.614650 0.500000 0.384200 -0.621785
O7    O     O_R   0.590410 0.500000 0.615800 -0.614277
O8    O     O_R   0.409590 0.500000 0.384200 -0.567634
Zn1   Zn    Zn3+2 0.363080 0.500000 0.500000 1.086673
Zn2   Zn    Zn3+2 0.636920 0.500000 0.500000 1.042519
F1    F     F_    0.311739 0.649011 0.735567 -0.589497
F2    F     F_    0.394486 0.687542 0.287947 -0.598943
C25   C     C_2   0.689333 0.362033 0.233313 1.061224
O9    O     O_2   0.643305 0.298995 0.286934 -0.636911
O10   O     O_R   0.807125 0.336176 0.194329 -0.687391
H1    H     H_    0.844773 0.264180 0.216308 0.358236
C26   C     C_2   0.619540 0.333754 0.747189 1.059986
O11   O     O_2   0.590340 0.280600 0.689193 -0.649953
O12   O     O_R   0.730230 0.306152 0.779253 -0.681492
H2    H     H_    0.778261 0.241890 0.748799 0.354132
C27   C     C_2   0.645695 0.656739 0.964288 1.064502
O13   O     O_2   0.746483 0.676103 0.988797 -0.521439
O14   O     O_R   0.624102 0.695692 0.888289 -0.802759
H3    H     H_    0.699217 0.736082 0.859279 0.369887
C28   C     C_2   0.342680 0.484488 0.042221 1.033945
O15   O     O_2   0.239102 0.477710 0.019176 -0.513671
O16   O     O_R   0.363491 0.433809 0.115047 -0.814318
H4    H     H_    0.285568 0.397365 0.143586 0.371227
F3    F     F_    0.593241 0.370994 0.913096 -0.550341
F4    F     F_    0.705008 0.433003 0.072825 -0.530315
F5    F     F_    0.417283 0.742967 0.130325 -0.563257
F6    F     F_    0.292811 0.670904 0.897095 -0.537150

loop_
_geom_bond_atom_site_label_1
_geom_bond_atom_site_label_2
_ccdc_geom_bond_type
C1    C3    S    
C2    C4    S    
C23   C24   D    
C15   C17   A    
C14   C16   A    
C10   O6    A    
C14   F2    S    
C26   O12   S    
O10   H1    S    
C23   C28   S    
C27   O13   D    
C7    N1    T    
C2    O4    A    
C20   F4    S    
O1    Zn1   S    
C1    O3    A    
C7    C8    S    
C25   O10   S    
C21   C26   S    
O12   H2    S    
C9    O7    A    
C11   C13   A    
O3    Zn2   S    
C9    C11   S    
C17   C23   S    
C10   C12   S    
O4    Zn1   S    
C18   C24   S    
C22   C25   S    
O6    Zn2   S    
C16   C18   A    
C19   C21   A    
C12   C14   A    
O14   H3    S    
C18   C20   A    
C16   F5    S    
C13   C15   A    
C26   O11   D    
C5    C6    S    
C15   F6    S    
O5    Zn1   S    
C4    C6    T    
C9    O5    A    
N1    Zn2   S    
C28   O15   D    
C10   O8    A    
C12   C22   A    
N2    Zn1   S    
O7    Zn2   S    
C8    N2    T    
O2    Zn2   S    
C27   O14   S    
O8    Zn1   S    
C19   F3    S    
C25   O9    D    
C1    O1    A    
C2    O2    A    
C17   C19   A    
O16   H4    S    
C24   C27   S    
C13   F1    S    
C11   C21   A    
C28   O16   S    
C20   C22   A    
C3    C5    T    
