data_str_m2_o1_o20_f0_pcu.sym.36
_audit_creation_date              2012-10-26T20:06:27-0400
_audit_creation_method            fapswitch 2.2
_symmetry_space_group_name_H-M    P1
_symmetry_Int_Tables_number       1
_space_group_crystal_system       triclinic
_cell_length_a                    10.836213
_cell_length_b                    9.516173
_cell_length_c                    14.349643
_cell_angle_alpha                 90.007427
_cell_angle_beta                  90.2464
_cell_angle_gamma                 90.004003
_cell_volume                      1479.71112033

loop_
_atom_site_label
_atom_site_type_symbol
_atom_type_description
_atom_site_fract_x
_atom_site_fract_y
_atom_site_fract_z
_atom_type_partial_charge
C1    C     C_R   0.262414 0.499980 0.499673 0.598958
C2    C     C_1   0.500375 0.499949 0.957306 0.028611
C3    C     C_R   0.065269 0.416747 0.565432 0.011253
C4    C     C_R   0.934607 0.583703 0.434908 0.007570
C5    C     C_R   0.935912 0.417729 0.566611 0.010736
C6    C     C_R   0.063990 0.583488 0.434238 0.010348
C7    C     C_R   0.871569 0.500489 0.500727 -0.056759
C8    C     C_R   0.128333 0.499800 0.499528 -0.054360
C9    C     C_R   0.422558 0.074389 0.442494 0.048341
C10   C     C_R   0.577448 0.925618 0.557499 0.044913
C11   C     C_R   0.577341 0.074436 0.557549 0.043019
C12   C     C_R   0.737550 0.500056 0.500346 0.597488
C13   C     C_R   0.422657 0.925567 0.442434 0.043973
C14   C     C_2   0.135357 0.339061 0.638114 0.622700
C15   C     C_2   0.864638 0.661294 0.362023 0.620985
C16   C     C_2   0.868241 0.340684 0.640854 0.598440
C17   C     C_2   0.132062 0.661748 0.360884 0.600358
C18   C     C_R   0.500134 0.499965 0.330987 0.588600
C19   C     C_R   0.500151 0.500013 0.669015 0.589921
C20   C     C_1   0.500223 0.499877 0.228690 0.002747
C21   C     C_1   0.500356 0.500025 0.771307 0.021119
C22   C     C_1   0.500281 0.499904 0.143313 -0.015573
C23   C     C_1   0.500397 0.499980 0.856686 -0.006155
C24   C     C_1   0.500338 0.499935 0.042695 0.028163
Cu1   Cu    Cu3+1 0.500000 0.640660 0.500000 1.024155
Cu2   Cu    Cu3+1 0.500000 0.359340 0.500000 1.033964
H1    H     H_    0.246579 0.349753 0.750809 0.337954
H2    H     H_    0.750826 0.650586 0.250813 0.338656
H3    H     H_    0.835574 0.156438 0.705650 0.333859
H4    H     H_    0.254259 0.654145 0.255518 0.332965
H5    H     H_    0.360525 0.130456 0.396413 0.137264
H6    H     H_    0.639494 0.869568 0.603580 0.130033
H7    H     H_    0.638997 0.130587 0.603777 0.138962
H8    H     H_    0.360965 0.869454 0.396170 0.150469
N1    N     N_R   0.500000 0.852070 0.500000 -0.231929
N2    N     N_R   0.500000 0.147930 0.500000 -0.231832
O1    O     O_R   0.319640 0.618740 0.499990 -0.481465
O2    O     O_R   0.201449 0.413797 0.705659 -0.697060
O3    O     O_2   0.865638 0.789740 0.360877 -0.443314
O4    O     O_R   0.795195 0.586573 0.296409 -0.693252
O5    O     O_2   0.796188 0.403804 0.691116 -0.529510
O6    O     O_R   0.886242 0.196362 0.652649 -0.643164
O7    O     O_2   0.118301 0.788622 0.352506 -0.470378
O8    O     O_R   0.213023 0.589768 0.302278 -0.701052
O9    O     O_R   0.680360 0.381260 0.500010 -0.479016
O10   O     O_R   0.680360 0.618740 0.500010 -0.485729
O11   O     O_R   0.319640 0.381260 0.499990 -0.483726
O12   O     O_R   0.500000 0.618810 0.376050 -0.484759
O13   O     O_R   0.500000 0.381190 0.623950 -0.478060
O14   O     O_R   0.500000 0.618810 0.623950 -0.487458
O15   O     O_R   0.500000 0.381190 0.376050 -0.481074
O16   O     O_2   0.137751 0.210645 0.637232 -0.440896

loop_
_geom_bond_atom_site_label_1
_geom_bond_atom_site_label_2
_ccdc_geom_bond_type
C9    N2    A    
C17   O7    D    
C10   N1    A    
C10   H6    S    
H3    O6    S    
C14   O2    S    
C1    C8    S    
C19   O13   A    
Cu1   O12   S    
C1    O1    A    
C15   O3    D    
C4    C15   S    
C17   O8    S    
C13   H8    S    
Cu2   O15   S    
C19   O14   A    
H4    O8    S    
C3    C14   S    
Cu2   O11   S    
Cu1   N1    S    
C4    C7    A    
C16   O5    D    
Cu2   N2    S    
C11   N2    A    
C19   C21   S    
C20   C22   T    
C18   O15   A    
C13   N1    A    
C18   C20   S    
C21   C23   T    
C2    C24   T    
C7    C12   S    
C22   C24   S    
C15   O4    S    
C10   C11   A    
C9    H5    S    
H1    O2    S    
C16   O6    S    
C11   H7    S    
C9    C13   A    
C4    C6    A    
C3    C8    A    
Cu2   O13   S    
C2    C23   S    
C5    C7    A    
C6    C17   S    
H2    O4    S    
Cu1   O14   S    
C1    O11   A    
C5    C16   S    
C6    C8    A    
Cu2   O9    S    
Cu1   O1    S    
Cu1   Cu2   S    
Cu1   O10   S    
C14   O16   D    
C12   O9    A    
C3    C5    A    
C12   O10   A    
C18   O12   A    
