data_str_m2_o17_o28_f0_pcu.sym.183
_audit_creation_date              2012-12-10T17:45:23-0500
_audit_creation_method            fapswitch 2.2
_symmetry_space_group_name_H-M    P1
_symmetry_Int_Tables_number       1
_space_group_crystal_system       triclinic
_cell_length_a                    15.02531
_cell_length_b                    13.836862
_cell_length_c                    23.510602
_cell_angle_alpha                 89.898688
_cell_angle_beta                  87.875535
_cell_angle_gamma                 90.001996
_cell_volume                      4884.56065334

loop_
_atom_site_label
_atom_site_type_symbol
_atom_type_description
_atom_site_fract_x
_atom_site_fract_y
_atom_site_fract_z
_atom_type_partial_charge
C1    C     C_R   0.329286 0.500000 0.500146 0.976261
C2    C     C_R   0.670714 0.499999 0.499854 0.976260
C3    C     C_R   0.500721 0.589156 0.238846 0.000954
C4    C     C_R   0.499280 0.410844 0.761154 0.000954
C5    C     C_R   0.500626 0.588457 0.298281 -0.165466
C6    C     C_R   0.499374 0.411543 0.701719 -0.165466
C7    C     C_R   0.500484 0.500504 0.328323 -0.008647
C8    C     C_R   0.499516 0.499496 0.671676 -0.008646
C9    C     C_R   0.500485 0.413108 0.298002 -0.131210
C10   C     C_R   0.499515 0.586892 0.701998 -0.131209
C11   C     C_R   0.500556 0.413635 0.238738 -0.098006
C12   C     C_R   0.499443 0.586365 0.761262 -0.098006
C13   C     C_R   0.500528 0.501256 0.208945 0.305672
C14   C     C_R   0.499472 0.498743 0.791055 0.305672
C15   C     C_R   0.815667 0.500618 0.447821 0.306003
C16   C     C_R   0.184333 0.499381 0.552179 0.306003
C17   C     C_R   0.767021 0.499989 0.499881 -0.195392
C18   C     C_R   0.232979 0.500011 0.500119 -0.195391
C19   C     C_R   0.809524 0.499314 0.551981 0.249179
C20   C     C_R   0.190476 0.500686 0.448019 0.249179
C21   C     C_R   0.902973 0.499320 0.552270 0.048588
C22   C     C_R   0.097027 0.500680 0.447729 0.048588
C23   C     C_R   0.500268 0.500102 0.390974 0.900642
C24   C     C_R   0.499732 0.499898 0.609026 0.900643
C25   C     C_R   0.952960 0.499993 0.499975 -0.001880
C26   C     C_R   0.047040 0.500007 0.500025 -0.001880
C27   C     C_R   0.909150 0.500643 0.447629 0.026060
C28   C     C_R   0.090849 0.499357 0.552371 0.026060
C29   C     C_R   0.947694 0.498676 0.603627 -0.122922
C30   C     C_R   0.052306 0.501324 0.396373 -0.122922
C31   C     C_R   0.040054 0.498697 0.603676 -0.123585
C32   C     C_R   0.959946 0.501302 0.396324 -0.123585
C33   C     C_R   0.442852 0.793869 0.536527 0.442319
C34   C     C_R   0.557148 0.206131 0.463473 0.442319
C35   C     C_R   0.557106 0.794083 0.463450 0.442375
C36   C     C_R   0.442894 0.205917 0.536550 0.442375
C37   C     C_R   0.558106 0.896847 0.462765 -0.066713
C38   C     C_R   0.441894 0.103153 0.537235 -0.066713
C39   C     C_R   0.441874 0.896629 0.537223 -0.066880
C40   C     C_R   0.558126 0.103371 0.462777 -0.066880
C41   C     C_R   0.499997 0.948290 0.499998 0.031630
C42   C     C_R   0.500003 0.051709 0.500002 0.031630
C43   C     C_R   0.615784 0.949737 0.425777 -0.125061
C44   C     C_R   0.384216 0.050263 0.574223 -0.125061
C45   C     C_R   0.384202 0.949301 0.574214 -0.125813
C46   C     C_R   0.615798 0.050699 0.425785 -0.125813
C47   C     C_R   0.578675 0.488394 0.878488 0.550461
C48   C     C_R   0.421325 0.511606 0.121512 0.550462
C49   C     C_R   0.420927 0.511672 0.882299 0.551145
C50   C     C_R   0.579073 0.488327 0.117701 0.551145
C51   C     C_R   0.419370 0.512046 0.941995 -0.021388
C52   C     C_R   0.580630 0.487954 0.058005 -0.021388
C53   C     C_R   0.499954 0.500047 0.969988 -0.012514
C54   C     C_R   0.500045 0.499952 0.030012 -0.012514
C55   C     C_R   0.580449 0.488148 0.938098 -0.019725
C56   C     C_R   0.419550 0.511852 0.061902 -0.019725
C57   C     C_R   0.339502 0.523851 0.974212 -0.143326
C58   C     C_R   0.660498 0.476149 0.025788 -0.143327
C59   C     C_R   0.339590 0.523745 0.033557 -0.142698
C60   C     C_R   0.660410 0.476255 0.966443 -0.142698
Cu1   Cu    Cu3+1 0.500000 0.597420 0.500000 1.098787
Cu2   Cu    Cu3+1 0.500000 0.402580 0.500000 1.098787
H1    H     H_    0.276699 0.533173 0.953704 0.196632
H2    H     H_    0.723300 0.466827 0.046296 0.196632
H3    H     H_    0.070891 0.498181 0.644513 0.212377
H4    H     H_    0.929109 0.501819 0.355487 0.212377
H5    H     H_    0.661794 0.914085 0.396257 0.203854
H6    H     H_    0.338206 0.085915 0.603743 0.203854
H7    H     H_    0.338183 0.913477 0.603732 0.203740
H8    H     H_    0.661817 0.086523 0.396268 0.203740
H9    H     H_    0.276858 0.533036 0.057107 0.196574
H10   H     H_    0.723141 0.466964 0.942893 0.196574
H11   H     H_    0.500653 0.656607 0.320949 0.190660
H12   H     H_    0.499347 0.343393 0.679051 0.190660
H13   H     H_    0.500305 0.344282 0.319993 0.191738
H14   H     H_    0.499694 0.655719 0.680007 0.191738
H15   H     H_    0.500440 0.345832 0.215811 0.153776
H16   H     H_    0.499559 0.654168 0.784189 0.153776
H17   H     H_    0.912026 0.498150 0.644432 0.214254
H18   H     H_    0.087974 0.501849 0.355567 0.214254
N1    N     N_R   0.499715 0.499759 0.852023 -0.474130
N2    N     N_R   0.500285 0.500241 0.147977 -0.474131
N3    N     N_R   0.500000 0.743810 0.500000 -0.249065
N4    N     N_R   0.500000 0.256190 0.500000 -0.249065
O1    O     O_R   0.370260 0.582280 0.500010 -0.532942
O2    O     O_R   0.629740 0.417720 0.499990 -0.532942
O3    O     O_R   0.629740 0.582280 0.499990 -0.533678
O4    O     O_R   0.370260 0.417720 0.500010 -0.533678
O5    O     O_R   0.499980 0.582290 0.417880 -0.553507
O6    O     O_R   0.500020 0.417710 0.582120 -0.553508
O7    O     O_R   0.500020 0.582290 0.582120 -0.554539
O8    O     O_R   0.499980 0.417710 0.417880 -0.554539
O9    O     O_2   0.655054 0.477386 0.847144 -0.507286
O10   O     O_2   0.344946 0.522613 0.152856 -0.507286
O11   O     O_2   0.344454 0.522689 0.854656 -0.503084
O12   O     O_2   0.655546 0.477311 0.145344 -0.503084
Cl1   Cl    Cl    0.369123 0.730531 0.583424 -0.562590
Cl2   Cl    Cl    0.630877 0.269469 0.416576 -0.562590
Cl3   Cl    Cl    0.630667 0.730994 0.416473 -0.562865
Cl4   Cl    Cl    0.369333 0.269006 0.583527 -0.562864
C61   C     C_1   0.501491 0.680316 0.208981 0.305645
N5    N     N_1   0.502106 0.753401 0.184968 -0.234830
C62   C     C_1   0.498511 0.319684 0.791019 0.305646
N6    N     N_1   0.497897 0.246599 0.815032 -0.234831
Cl5   Cl    Cl    0.757844 0.501277 0.383310 -0.528679
Cl6   Cl    Cl    0.242156 0.498723 0.616690 -0.528679
Cl7   Cl    Cl    0.744094 0.498480 0.616436 -0.630906
Cl8   Cl    Cl    0.255906 0.501520 0.383564 -0.630906

loop_
_geom_bond_atom_site_label_1
_geom_bond_atom_site_label_2
_ccdc_geom_bond_type
C16   C28   A    
C61   N5    T    
C41   C42   A    
C48   C56   A    
C39   C41   A    
C53   C54   A    
C40   C46   A    
Cu2   O2    S    
C1    C18   S    
C33   C39   A    
C48   O10   S    
C34   C40   A    
C47   C55   A    
C35   C37   A    
C38   C42   A    
C57   C59   A    
C60   H10   S    
C58   C60   A    
C4    C62   S    
C7    C9    A    
C49   N1    A    
C21   C25   A    
Cu1   O3    S    
C8    C24   S    
C10   H14   S    
C52   C54   A    
C49   C51   A    
C12   H16   S    
C50   C52   A    
C23   O5    A    
C6    H12   S    
C51   C57   A    
C11   H15   S    
C33   Cl1   S    
C3    C13   A    
C16   Cl6   S    
C39   C45   A    
C30   H18   S    
C3    C61   S    
C1    O4    A    
C40   C42   A    
C55   C60   A    
C2    C17   S    
C37   C41   A    
C34   N4    A    
C35   Cl3   S    
C10   C12   A    
Cu1   O5    S    
C57   H1    S    
C53   C55   A    
C1    O1    A    
C52   C58   A    
C54   C56   A    
C45   H7    S    
C4    C6    A    
Cu1   N3    S    
C5    C7    A    
C35   N3    A    
C17   C19   A    
C6    C8    A    
C58   H2    S    
C25   C26   A    
C21   C29   A    
C13   N2    S    
Cu2   O8    S    
C51   C53   A    
C37   C43   A    
C43   H5    S    
C38   C44   A    
C9    C11   A    
C15   C27   A    
C29   H17   S    
C47   O9    S    
C2    O3    A    
C36   Cl4   S    
C49   O11   S    
C33   N3    A    
Cu1   O1    S    
C16   C18   A    
C12   C14   A    
C44   H6    S    
C24   O7    A    
C44   C45   A    
C50   N2    A    
C32   H4    S    
C31   H3    S    
Cu2   N4    S    
C22   C30   A    
C19   C21   A    
C27   C32   A    
C28   C31   A    
C20   C22   A    
C3    C5    A    
C24   O6    A    
C15   C17   A    
C25   C27   A    
C5    H11   S    
C26   C28   A    
C56   C59   A    
C15   Cl5   S    
C36   C38   A    
C29   C31   A    
C30   C32   A    
C11   C13   A    
C50   O12   S    
Cu2   O4    S    
C36   N4    A    
C7    C23   S    
Cu2   O6    S    
C34   Cl2   S    
C48   N2    A    
C2    O2    A    
C18   C20   A    
C47   N1    A    
C4    C14   A    
Cu1   Cu2   S    
C43   C46   A    
C46   H8    S    
C8    C10   A    
C22   C26   A    
C62   N6    T    
C23   O8    A    
C9    H13   S    
C14   N1    S    
Cu1   O7    S    
C59   H9    S    
C20   Cl8   S    
C19   Cl7   S    
