data_str_m2_o1_o10_f0_pcu.sym.19
_audit_creation_date              2012-10-26T20:20:42-0400
_audit_creation_method            fapswitch 2.2
_symmetry_space_group_name_H-M    P1
_symmetry_Int_Tables_number       1
_space_group_crystal_system       triclinic
_cell_length_a                    8.835947
_cell_length_b                    10.848373
_cell_length_c                    9.507586
_cell_angle_alpha                 90.528815
_cell_angle_beta                  97.799568
_cell_angle_gamma                 89.976827
_cell_volume                      902.885959943

loop_
_atom_site_label
_atom_site_type_symbol
_atom_type_description
_atom_site_fract_x
_atom_site_fract_y
_atom_site_fract_z
_atom_type_partial_charge
C1    C     C_R   0.502656 0.262205 0.499431 0.547084
C2    C     C_R   0.440668 0.067595 0.605648 -0.143310
C3    C     C_R   0.496470 0.871690 0.502100 -0.004224
C4    C     C_R   0.503530 0.128310 0.497900 -0.004224
C5    C     C_R   0.401915 0.425998 0.061293 0.047804
C6    C     C_R   0.598085 0.574002 0.938707 0.047804
C7    C     C_R   0.401975 0.426013 0.912393 0.048768
C8    C     C_R   0.598025 0.573987 0.087607 0.048768
C9    C     C_1   0.973814 0.434581 0.309818 0.229700
C10   C     C_1   0.026186 0.565419 0.690182 0.229700
C11   C     C_1   0.635052 0.117009 0.280000 0.221913
C12   C     C_R   0.497344 0.737795 0.500569 0.547084
C13   C     C_1   0.364948 0.882991 0.720000 0.221913
C14   C     C_R   0.204455 0.498955 0.464303 0.535107
C15   C     C_R   0.795545 0.501045 0.535696 0.535107
C16   C     C_2   0.040731 0.486574 0.445877 -0.074809
C17   C     C_2   0.959269 0.513426 0.554123 -0.074809
C18   C     C_R   0.563891 0.060015 0.391311 -0.030119
C19   C     C_R   0.436109 0.939985 0.608689 -0.030119
C20   C     C_R   0.559332 0.932405 0.394352 -0.143310
Cu1   Cu    Cu3+1 0.500000 0.500020 0.640660 0.993841
Cu2   Cu    Cu3+1 0.500000 0.499980 0.359340 0.993840
H1    H     H_    0.607513 0.880064 0.313309 0.134446
H2    H     H_    0.392487 0.119936 0.686690 0.134445
H3    H     H_    0.323517 0.366654 0.106976 0.124881
H4    H     H_    0.676483 0.633347 0.893023 0.124882
H5    H     H_    0.323531 0.366719 0.845662 0.114962
H6    H     H_    0.676469 0.633281 0.154338 0.114962
N1    N     N_R   0.500040 0.500030 0.852080 -0.226879
N2    N     N_R   0.499960 0.499970 0.147920 -0.226879
N3    N     N_1   0.921597 0.393328 0.201310 -0.257839
N4    N     N_1   0.078402 0.606672 0.798690 -0.257839
N5    N     N_1   0.691860 0.162301 0.190611 -0.257481
N6    N     N_1   0.308140 0.837699 0.809389 -0.257481
O1    O     O_R   0.499990 0.319660 0.618740 -0.512603
O2    O     O_R   0.500010 0.680340 0.381260 -0.512603
O3    O     O_R   0.499990 0.319630 0.381170 -0.493573
O4    O     O_R   0.500010 0.680370 0.618830 -0.493573
O5    O     O_R   0.274840 0.500010 0.591370 -0.498667
O6    O     O_R   0.725160 0.499990 0.408630 -0.498667
O7    O     O_R   0.274830 0.499980 0.353800 -0.498999
O8    O     O_R   0.725170 0.500020 0.646200 -0.498999

loop_
_geom_bond_atom_site_label_1
_geom_bond_atom_site_label_2
_ccdc_geom_bond_type
C2    C4    A    
C11   C18   S    
C3    C19   A    
Cu1   O1    S    
C14   C16   S    
C12   O2    A    
Cu2   O2    S    
Cu1   O5    S    
C20   H1    S    
C1    O3    A    
C1    C4    S    
C4    C18   A    
C8    N2    A    
C14   O5    A    
Cu2   O6    S    
C13   N6    T    
C3    C20   A    
Cu1   Cu2   S    
C12   O4    A    
C6    H4    S    
C14   O7    A    
C7    N1    A    
C9    C16   S    
C18   C20   A    
C2    H2    S    
C8    H6    S    
C5    H3    S    
C15   O6    A    
Cu2   O7    S    
C13   C19   S    
C10   C17   S    
Cu1   O8    S    
C10   N4    T    
C11   N5    T    
C6    N1    A    
C7    H5    S    
C1    O1    A    
C5    C7    A    
C5    N2    A    
C15   C17   S    
C9    N3    T    
C6    C8    A    
C3    C12   S    
Cu2   N2    S    
C2    C19   A    
Cu2   O3    S    
Cu1   N1    S    
Cu1   O4    S    
C15   O8    A    
C16   C17   D    
