data_str_m2_o9_o19_f0_nbo.sym.181
_audit_creation_date              2012-12-10T18:27:45-0500
_audit_creation_method            fapswitch 2.2
_symmetry_space_group_name_H-M    P1
_symmetry_Int_Tables_number       1
_space_group_crystal_system       triclinic
_cell_length_a                    19.3499
_cell_length_b                    19.359366
_cell_length_c                    19.387606
_cell_angle_alpha                 111.798515
_cell_angle_beta                  111.759661
_cell_angle_gamma                 104.610139
_cell_volume                      5586.09965073

loop_
_atom_site_label
_atom_site_type_symbol
_atom_type_description
_atom_site_fract_x
_atom_site_fract_y
_atom_site_fract_z
_atom_type_partial_charge
C1    C     C_R   0.891639 0.391977 0.999795 0.806906
C2    C     C_R   0.046385 0.805929 0.998649 -0.157611
C3    C     C_R   0.759259 0.572487 0.747823 0.589616
C4    C     C_R   0.686196 0.497280 0.683802 -0.215455
C5    C     C_R   0.678275 0.422952 0.685046 -0.028500
C6    C     C_R   0.744162 0.426156 0.750591 -0.239065
C7    C     C_R   0.816120 0.501158 0.814393 -0.131319
C8    C     C_R   0.824213 0.574865 0.813309 -0.057338
C9    C     C_R   0.562686 0.293454 0.644086 -0.233486
C10   C     C_R   0.493878 0.215206 0.581837 0.670242
C11   C     C_R   0.465913 0.183334 0.493749 -0.194976
C12   C     C_R   0.882102 0.500731 0.881279 0.827184
C13   C     C_R   0.506696 0.229617 0.467810 -0.224738
C14   C     C_R   0.575380 0.307839 0.529893 -0.111304
C15   C     C_R   0.603850 0.340748 0.618577 0.069322
C16   C     C_1   0.830396 0.331156 0.999470 -0.174160
C17   C     C_1   0.779230 0.280023 0.999337 -0.002140
C18   C     C_1   0.719527 0.220110 0.999510 0.013750
C19   C     C_1   0.668667 0.168993 0.999707 -0.157320
C20   C     C_R   0.056671 0.579226 0.352131 -0.139317
C21   C     C_R   0.122804 0.576721 0.339502 -0.054909
C22   C     C_R   0.110212 0.505288 0.270620 0.182574
C23   C     C_R   0.108208 0.608026 0.000032 0.817535
C24   C     C_R   0.030934 0.436259 0.215001 -0.125274
C25   C     C_R   0.965157 0.438789 0.228384 -0.115945
C26   C     C_R   0.977915 0.510280 0.296649 -0.102435
C27   C     C_R   0.245863 0.501204 0.321215 0.537441
C28   C     C_R   0.314049 0.498491 0.312508 -0.206153
C29   C     C_R   0.317750 0.496707 0.240628 -0.048305
C30   C     C_R   0.252009 0.495845 0.177472 -0.207810
C31   C     C_R   0.183893 0.498472 0.185963 -0.157711
C32   C     C_R   0.180884 0.502156 0.258807 -0.121124
C33   C     C_R   0.446387 0.566566 0.242674 -0.135963
C34   C     C_R   0.117940 0.499234 0.118908 0.816345
C35   C     C_R   0.513542 0.565215 0.231638 -0.230618
C36   C     C_R   0.522998 0.492217 0.206259 -0.194864
C37   C     C_R   0.465438 0.420467 0.192088 0.656391
C38   C     C_R   0.398723 0.421839 0.204164 -0.212775
C39   C     C_R   0.388811 0.494957 0.229287 0.067872
C40   C     C_1   0.169445 0.668774 0.000260 -0.110763
C41   C     C_1   0.220733 0.719703 0.000300 0.045158
C42   C     C_1   0.280660 0.779144 0.999893 -0.002950
C43   C     C_1   0.331529 0.830108 0.999563 -0.167376
C44   C     C_R   0.503249 0.381120 0.383883 0.759875
C45   C     C_R   0.980458 0.787195 0.013358 -0.130773
C46   C     C_R   0.619119 0.498784 0.618121 0.847947
C47   C     C_R   0.497181 0.619025 0.616395 0.811582
C48   C     C_R   0.380997 0.499014 0.379859 0.850261
C49   C     C_R   0.496429 0.879767 0.879142 0.792883
C50   C     C_R   0.608008 0.108061 0.999889 0.817080
C51   C     C_R   0.500668 0.117255 0.120899 0.787006
C52   C     C_R   0.392024 0.891350 0.999556 0.814660
C53   C     C_R   0.769314 0.528217 0.467854 -0.153762
C54   C     C_R   0.691368 0.462299 0.399055 -0.070884
C55   C     C_R   0.663271 0.386056 0.395562 0.083842
C56   C     C_R   0.907870 0.711690 0.952850 -0.153270
C57   C     C_R   0.716106 0.375177 0.459017 -0.219250
C58   C     C_R   0.793827 0.441328 0.527962 -0.100366
C59   C     C_R   0.820221 0.517956 0.532647 -0.048296
C60   C     C_R   0.576998 0.249115 0.259604 -0.196181
C61   C     C_R   0.500237 0.182558 0.188976 -0.051436
C62   C     C_R   0.424959 0.181530 0.182983 0.075683
C63   C     C_R   0.428437 0.247278 0.248680 -0.195255
C64   C     C_R   0.504930 0.314658 0.318232 -0.048793
C65   C     C_R   0.580327 0.316447 0.323618 0.023459
C66   C     C_R   0.283728 0.129663 0.058336 -0.247414
C67   C     C_R   0.901323 0.654185 0.877627 0.047140
C68   C     C_R   0.203385 0.065738 0.990453 -0.112770
C69   C     C_R   0.181923 0.984280 0.975750 0.643702
C70   C     C_R   0.239646 0.967891 0.028002 -0.231543
C71   C     C_R   0.319226 0.031600 0.094804 -0.240065
C72   C     C_R   0.341841 0.112829 0.110188 0.090688
C73   C     C_R   0.562773 0.845725 0.554980 -0.119834
C74   C     C_R   0.563727 0.835961 0.623233 -0.120557
C75   C     C_R   0.497565 0.769035 0.606752 0.110010
C76   C     C_R   0.429823 0.713006 0.521348 -0.130237
C77   C     C_R   0.428946 0.723238 0.453367 -0.120361
C78   C     C_R   0.967702 0.673215 0.863047 0.628133
C79   C     C_R   0.495532 0.789312 0.470109 -0.102853
C80   C     C_R   0.499203 0.821551 0.745121 -0.223042
C81   C     C_R   0.494485 0.811893 0.811523 -0.063002
C82   C     C_R   0.487059 0.737540 0.811550 0.012799
C83   C     C_R   0.486852 0.674979 0.745910 -0.199296
C84   C     C_R   0.493995 0.685396 0.680815 -0.070231
C85   C     C_R   0.498355 0.758556 0.678927 0.009101
C86   C     C_R   0.539949 0.755078 0.958881 -0.107407
C87   C     C_R   0.527403 0.734310 0.016345 -0.195514
C88   C     C_R   0.448742 0.676395 0.990354 -0.006531
C89   C     C_R   0.039834 0.749178 0.923387 -0.146462
C90   C     C_R   0.380583 0.641203 0.905233 -0.047097
C91   C     C_R   0.394464 0.663629 0.848588 -0.219045
C92   C     C_R   0.473517 0.720258 0.874926 0.062396
Cu1   Cu    Cu3+1 0.999510 0.561800 0.061330 0.964828
Cu2   Cu    Cu3+1 0.000490 0.438200 0.938670 1.017785
Cu3   Cu    Cu3+1 0.555790 0.555750 0.499960 1.020222
Cu4   Cu    Cu3+1 0.444210 0.444200 0.499990 1.022727
Cu5   Cu    Cu3+1 0.438200 0.001560 0.939770 1.022271
Cu6   Cu    Cu3+1 0.561800 0.998350 0.060150 0.967953
H1    H     H_    0.102403 0.864497 0.045483 0.159312
H2    H     H_    0.412699 0.122787 0.445572 0.161364
H3    H     H_    0.485078 0.204936 0.399602 0.162983
H4    H     H_    0.605928 0.343160 0.508964 0.118249
H5    H     H_    0.926863 0.512119 0.306754 0.133557
H6    H     H_    0.066564 0.634470 0.405149 0.139885
H7    H     H_    0.183727 0.630327 0.383177 0.128496
H8    H     H_    0.020399 0.380452 0.162025 0.117345
H9    H     H_    0.904349 0.385240 0.186129 0.138487
H10   H     H_    0.254434 0.494166 0.121873 0.179351
H11   H     H_    0.985510 0.831294 0.071526 0.149056
H12   H     H_    0.439398 0.623347 0.261986 0.153991
H13   H     H_    0.557948 0.620609 0.242222 0.183451
H14   H     H_    0.574727 0.491180 0.197175 0.156439
H15   H     H_    0.354468 0.366033 0.193206 0.137167
H16   H     H_    0.880376 0.569134 0.586075 0.178138
H17   H     H_    0.790217 0.587261 0.470964 0.137568
H18   H     H_    0.652566 0.470846 0.349038 0.146168
H19   H     H_    0.696632 0.315849 0.455648 0.141153
H20   H     H_    0.833628 0.433151 0.577675 0.167498
H21   H     H_    0.856951 0.697853 0.964607 0.150776
H22   H     H_    0.634578 0.249931 0.263347 0.150785
H23   H     H_    0.370855 0.246502 0.244930 0.141960
H24   H     H_    0.301606 0.192850 0.071135 0.213383
H25   H     H_    0.222402 0.905483 0.016901 0.149053
H26   H     H_    0.362894 0.017841 0.135072 0.136358
H27   H     H_    0.494869 0.796975 0.417370 0.134476
H28   H     H_    0.614158 0.897071 0.567895 0.139688
H29   H     H_    0.616233 0.880001 0.688692 0.135509
H30   H     H_    0.377719 0.661752 0.507626 0.153472
H31   H     H_    0.376624 0.680090 0.387728 0.128630
H32   H     H_    0.502911 0.878203 0.744607 0.151288
H33   H     H_    0.481940 0.618006 0.746179 0.164814
H34   H     H_    0.601888 0.797304 0.979439 0.150275
H35   H     H_    0.580325 0.761270 0.080571 0.161066
H36   H     H_    0.343476 0.637222 0.783333 0.191573
H37   H     H_    0.090725 0.764015 0.911847 0.176312
H38   H     H_    0.739465 0.369738 0.752085 0.161160
H39   H     H_    0.583657 0.317424 0.712119 0.161648
O1    O     O_R   0.918180 0.470790 0.051800 -0.575476
O2    O     O_R   0.453580 0.362680 0.410500 -0.593954
O3    O     O_R   0.637300 0.547080 0.590140 -0.521170
O4    O     O_R   0.543070 0.452880 0.590170 -0.590413
O5    O     O_R   0.546420 0.637270 0.589450 -0.565162
O6    O     O_R   0.452190 0.543070 0.589480 -0.575012
O7    O     O_R   0.456930 0.547080 0.409790 -0.592759
O8    O     O_R   0.362710 0.452870 0.409810 -0.532232
O9    O     O_R   0.446190 0.911170 0.857320 -0.579222
O10   O     O_R   0.550560 0.908460 0.958980 -0.590796
O11   O     O_R   0.529210 0.082710 0.949130 -0.564258
O12   O     O_R   0.919010 0.366410 0.948200 -0.577429
O13   O     O_R   0.633590 0.080000 0.050790 -0.580376
O14   O     O_R   0.449440 0.091450 0.040930 -0.552655
O15   O     O_R   0.553810 0.088740 0.142590 -0.596987
O16   O     O_R   0.366410 0.919910 0.949130 -0.568118
O17   O     O_R   0.470790 0.917200 0.050790 -0.573326
O18   O     O_R   0.909400 0.552190 0.961620 -0.595551
O19   O     O_R   0.910240 0.447810 0.858030 -0.571548
O20   O     O_R   0.080990 0.633590 0.051800 -0.593156
O21   O     O_R   0.081820 0.529210 0.948200 -0.545891
O22   O     O_R   0.089760 0.552190 0.141970 -0.585118
O23   O     O_R   0.090600 0.447810 0.038380 -0.572291
O24   O     O_R   0.547810 0.456880 0.410470 -0.592366
F1    F     F_    0.243110 0.504020 0.391288 -0.665703
F2    F     F_    0.473882 0.349356 0.165624 -0.681682
C93   C     C_2   0.142826 0.084855 0.936128 0.892325
O25   O     O_2   0.162691 0.156089 0.950350 -0.597646
O26   O     O_R   0.062880 0.021845 0.868552 -0.670649
H40   H     H_    0.027806 0.043011 0.836661 0.334917
F3    F     F_    0.105327 0.920392 0.911422 -0.626730
F4    F     F_    0.962277 0.618551 0.790388 -0.677890
C94   C     C_2   0.442145 0.650707 0.051747 0.865716
O27   O     O_2   0.478968 0.702744 0.129128 -0.615313
O28   O     O_R   0.397091 0.566640 0.021996 -0.722154
H41   H     H_    0.397441 0.557133 0.070105 0.340188
C95   C     C_2   0.294092 0.582995 0.873247 0.889510
O29   O     O_2   0.270708 0.583620 0.923906 -0.572563
O30   O     O_R   0.238002 0.528749 0.784022 -0.752658
H42   H     H_    0.180842 0.492964 0.770023 0.347466
F5    F     F_    0.766855 0.644310 0.747846 -0.640287
F6    F     F_    0.454341 0.170184 0.606978 -0.654602

loop_
_geom_bond_atom_site_label_1
_geom_bond_atom_site_label_2
_ccdc_geom_bond_type
C66   C68   A    
C87   C88   A    
Cu6   O17   S    
Cu1   Cu2   S    
C89   H37   S    
C41   C42   S    
C87   H35   S    
Cu3   Cu4   S    
C51   C61   S    
Cu4   O2    S    
Cu5   Cu6   S    
C53   C59   A    
C7    C8    A    
Cu6   O15   S    
C53   C54   A    
C44   C64   S    
Cu2   O12   S    
Cu4   O8    S    
C47   O5    A    
C49   O10   A    
Cu3   O3    S    
C80   C85   A    
C22   C32   S    
C10   F6    S    
C46   O3    A    
C36   C37   A    
C3    F5    S    
Cu3   O24   S    
C27   F1    S    
C5    C6    A    
C45   H11   S    
C43   C52   S    
C14   H4    S    
Cu6   O10   S    
C52   O17   A    
C23   C40   S    
C23   O21   A    
C47   O6    A    
C58   H20   S    
C82   C92   S    
C48   O7    A    
C18   C19   T    
C73   C74   A    
C49   C81   S    
C42   C43   T    
Cu1   O22   S    
C95   O29   D    
C6    H38   S    
Cu1   O1    S    
C55   C65   S    
Cu4   O4    S    
C9    H39   S    
C70   H25   S    
C75   C85   S    
C66   C72   A    
C83   C84   A    
C45   C56   A    
C16   C17   T    
C54   H18   S    
C36   H14   S    
C66   H24   S    
C1    O12   A    
C70   C71   A    
Cu5   O16   S    
C9    C10   A    
C37   F2    S    
C34   O22   A    
C68   C93   S    
C79   H27   S    
C51   O14   A    
Cu3   O7    S    
Cu2   O21   S    
C21   C22   A    
C93   O25   D    
C61   C62   A    
C67   C78   A    
C12   O19   A    
C63   H23   S    
C81   C82   A    
C46   O4    A    
C57   C58   A    
C77   C79   A    
C78   C89   A    
Cu5   O14   S    
C7    C12   S    
C88   C94   S    
C74   C75   A    
C71   H26   S    
Cu1   O18   S    
C84   C85   A    
C80   H32   S    
C24   C25   A    
C3    C8    A    
C10   C11   A    
C91   C92   A    
C38   H15   S    
C86   C87   A    
C68   C69   A    
C4    C46   S    
C25   C26   A    
C78   F4    S    
C11   H2    S    
C35   C36   A    
C37   C38   A    
C2    C89   A    
C75   C76   A    
C83   H33   S    
C29   C30   A    
C26   H5    S    
C50   O13   A    
C74   H29   S    
C30   C31   A    
C48   O8    A    
C29   C39   S    
C62   C63   A    
C17   C18   S    
C73   C79   A    
C31   C34   S    
C62   C72   S    
C1    C16   S    
C33   C39   A    
C47   C84   S    
C76   C77   A    
Cu1   O20   S    
C8    C67   S    
C40   C41   T    
C88   C90   A    
C60   C65   A    
C44   O2    A    
C55   C57   A    
O26   H40   S    
C76   H30   S    
Cu5   O11   S    
C22   C24   A    
C56   H21   S    
C58   C59   A    
C24   H8    S    
C44   O24   A    
C12   O18   A    
C13   H3    S    
C3    C4    A    
C28   C29   A    
C35   H13   S    
O28   H41   S    
C25   H9    S    
C57   H19   S    
Cu6   O13   S    
C50   O11   A    
C54   C55   A    
C28   C48   S    
Cu2   O23   S    
C30   H10   S    
C27   C32   A    
C31   C32   A    
C80   C81   A    
C51   O15   A    
C77   H31   S    
C6    C7    A    
C20   H6    S    
C56   C67   A    
C90   C95   S    
C64   C65   A    
O30   H42   S    
C2    H1    S    
C52   O16   A    
C69   F3    S    
C71   C72   A    
C86   C92   A    
Cu4   O6    S    
C11   C13   A    
C19   C50   S    
C86   H34   S    
C90   C91   A    
C38   C39   A    
C91   H36   S    
C20   C26   A    
C59   H16   S    
C23   O20   A    
C93   O26   S    
C33   C35   A    
C49   O9    A    
C60   H22   S    
C9    C15   A    
C69   C70   A    
C95   O30   S    
C5    C15   S    
C2    C45   A    
C63   C64   A    
Cu5   O9    S    
C53   H17   S    
C4    C5    A    
C20   C21   A    
Cu3   O5    S    
Cu2   O19   S    
C82   C83   A    
C94   O27   D    
C27   C28   A    
C14   C15   A    
C60   C61   A    
C33   H12   S    
C94   O28   S    
C13   C14   A    
C21   H7    S    
C1    O1    A    
C73   H28   S    
C34   O23   A    
