data_str_m3_o2_o18_f0_pcu.sym.41
_audit_creation_date              2013-03-05T16:31:43-0500
_audit_creation_method            fapswitch 2.2
_symmetry_space_group_name_H-M    P1
_symmetry_Int_Tables_number       1
_space_group_crystal_system       triclinic
_cell_length_a                    14.242854
_cell_length_b                    14.991473
_cell_length_c                    15.528071
_cell_angle_alpha                 90.225567
_cell_angle_beta                  67.12672
_cell_angle_gamma                 88.990313
_cell_volume                      3054.17681036

loop_
_atom_site_label
_atom_site_type_symbol
_atom_site_description
_atom_site_fract_x
_atom_site_fract_y
_atom_site_fract_z
_atom_type_partial_charge
O1    O     O_R   0.420530 0.630930 0.499990 -0.563600
O2    O     O_R   0.579470 0.369070 0.500010 -0.579379
O3    O     O_R   0.579480 0.630940 0.499990 -0.620813
O4    O     O_R   0.420520 0.369060 0.500010 -0.645427
C1    C     C_R   0.499476 0.671883 0.499986 0.868180
C2    C     C_R   0.500837 0.327631 0.499632 0.876145
O5    O     O_R   0.375120 0.499990 0.632240 -0.577278
O6    O     O_R   0.624880 0.500010 0.367760 -0.573941
O7    O     O_R   0.534080 0.500000 0.632240 -0.638311
O8    O     O_R   0.465920 0.500000 0.367760 -0.620325
C3    C     C_R   0.436069 0.499824 0.676227 0.876932
C4    C     C_R   0.563841 0.499090 0.323786 0.881930
Zn1   Zn    Zn3+2 0.393860 0.499990 0.500000 1.008126
Zn2   Zn    Zn3+2 0.606140 0.500010 0.500000 1.007124
C5    C     C_R   0.397067 0.488888 0.777362 -0.055995
C6    C     C_R   0.603967 0.493972 0.221873 -0.067644
C7    C     C_R   0.278144 0.425903 0.920305 -0.168693
C8    C     C_R   0.734419 0.520318 0.069459 -0.176190
C9    C     C_R   0.302203 0.451671 0.827936 -0.167641
C10   C     C_R   0.702455 0.520540 0.166368 -0.123610
C11   C     C_R   0.464960 0.503345 0.820368 -0.239204
C12   C     C_R   0.538480 0.465757 0.180219 -0.240110
C13   C     C_R   0.447456 0.469329 0.908562 0.094071
C14   C     C_R   0.566946 0.468330 0.083457 0.096374
C15   C     C_R   0.350777 0.433277 0.960511 0.144170
C16   C     C_R   0.666592 0.496866 0.027836 0.157068
C17   C     C_R   0.523354 0.471623 0.946368 0.072125
C18   C     C_R   0.496429 0.450238 0.041602 0.060716
C19   C     C_R   0.399442 0.413361 0.091719 -0.194747
C20   C     C_R   0.625724 0.493083 0.891487 -0.213149
C21   C     C_R   0.328519 0.404266 0.051214 -0.171827
C22   C     C_R   0.696179 0.504733 0.931751 -0.210199
H1    H     H_    0.462921 0.446968 0.225556 0.163266
H2    H     H_    0.532852 0.539927 0.782329 0.146727
H3    H     H_    0.752833 0.544975 0.197756 0.202301
H4    H     H_    0.248568 0.439967 0.795431 0.170215
H5    H     H_    0.204447 0.397335 0.959108 0.163244
H6    H     H_    0.810433 0.542524 0.027314 0.159663
H7    H     H_    0.376772 0.388374 0.161716 0.158555
H8    H     H_    0.654243 0.499877 0.816588 0.142524
C23   C     C_R   0.415922 0.907483 0.558772 -0.158231
C24   C     C_R   0.585455 0.091912 0.505147 -0.166728
H9    H     H_    0.350042 0.944829 0.605923 0.153782
H10   H     H_    0.648755 0.055635 0.511745 0.150065
C25   C     C_R   0.414494 0.815415 0.558796 -0.109234
C26   C     C_R   0.584987 0.184120 0.505387 -0.142530
H11   H     H_    0.348450 0.781988 0.607011 0.213613
H12   H     H_    0.648556 0.218189 0.511579 0.180268
C27   C     C_R   0.499717 0.767251 0.498944 -0.041322
C28   C     C_R   0.502420 0.231330 0.498567 -0.037798
C29   C     C_R   0.587246 0.810367 0.440175 -0.174009
C30   C     C_R   0.420863 0.185929 0.490747 -0.189423
H13   H     H_    0.653572 0.772777 0.394074 0.159738
H14   H     H_    0.356698 0.221232 0.484764 0.156302
C31   C     C_R   0.588737 0.902472 0.439938 -0.147358
C32   C     C_R   0.421521 0.093921 0.490402 -0.156450
C33   C     C_R   0.502887 0.950906 0.499029 0.090736
C34   C     C_R   0.503510 0.047024 0.498019 0.105022
C35   C     C_R   0.861256 0.526721 0.578479 -0.245941
C36   C     C_R   0.119832 0.424477 0.469919 -0.239733
H15   H     H_    0.869909 0.547964 0.641650 0.184482
H16   H     H_    0.095402 0.364171 0.446910 0.190999
C37   C     C_R   0.763333 0.529125 0.576511 -0.054909
C38   C     C_R   0.219265 0.426912 0.468390 -0.075351
H17   H     H_    0.699769 0.553792 0.637210 0.153955
H18   H     H_    0.269544 0.369410 0.442667 0.155931
N1    N     N_R   0.747530 0.500020 0.500000 -0.155594
N2    N     N_R   0.252470 0.499980 0.500000 -0.155020
C39   C     C_R   0.828645 0.467535 0.423469 0.324569
C40   C     C_R   0.187675 0.572304 0.534286 0.348981
C41   C     C_R   0.929574 0.468260 0.420787 0.182959
C42   C     C_R   0.088833 0.574544 0.532333 0.166674
C43   C     C_R   0.946879 0.497841 0.499744 0.019861
C44   C     C_R   0.053049 0.499111 0.500534 0.019967
H19   H     H_    0.255414 0.375356 0.091584 0.190748
H20   H     H_    0.773117 0.523442 0.887855 0.159770
N3    N     N_R   0.811975 0.432311 0.345033 0.235085
O9    O     O_R   0.763317 0.358196 0.353522 -0.363676
O10   O     O_R   0.864063 0.462058 0.261764 -0.373385
N4    N     N_R   0.219341 0.646681 0.573069 0.232947
O11   O     O_R   0.229187 0.638355 0.652484 -0.390535
O12   O     O_R   0.220288 0.725746 0.538489 -0.360112
N5    N     N_R   0.013605 0.439762 0.337475 0.221779
O13   O     O_R   0.089220 0.492715 0.296943 -0.358014
O14   O     O_R   0.014760 0.360864 0.301804 -0.353592
N6    N     N_R   0.026342 0.654043 0.561511 0.225108
O15   O     O_R   0.989876 0.692060 0.505575 -0.338426
O16   O     O_R   0.006281 0.689047 0.643739 -0.341602
H21   H     H_    0.655937 0.935910 0.393188 0.151328
H22   H     H_    0.358516 0.059271 0.483707 0.152932

loop_
_geom_bond_atom_site_label_1
_geom_bond_atom_site_label_2
_geom_bond_distance
_ccdc_geom_bond_type
C15   C21   1.391377 A    
C37   H17   1.080213 S    
C16   C22   1.389945 A    
C43   C44   1.517417 S    
C39   N3    1.429258 S    
C8    C16   1.403619 A    
C24   C34   1.398137 A    
N3    O9    1.299796 A    
O5    C3    1.296537 A    
O1    C1    1.290549 A    
C38   N2    1.363447 A    
C18   C19   1.419168 A    
C14   C16   1.419378 A    
C9    H4    1.082993 S    
N6    O16   1.301204 A    
C36   H16   1.082246 S    
C24   C26   1.382214 A    
C25   H11   1.081008 S    
O4    Zn1   1.992656 S    
C39   C41   1.422097 A    
C10   H3    1.079962 S    
C3    C5    1.459038 S    
C4    C6    1.459877 S    
C27   C29   1.397630 A    
C28   C30   1.401503 A    
Zn2   N1    2.013800 S    
C13   C17   1.417350 A    
C35   C43   1.409811 A    
C29   C31   1.381329 A    
C6    C10   1.397031 A    
C32   H22   1.083721 S    
C17   C20   1.417171 A    
C23   H9    1.083581 S    
C1    C27   1.429913 S    
O2    C2    1.292230 A    
C24   H10   1.083550 S    
C30   H14   1.083176 S    
C41   N5    1.436155 S    
N3    O10   1.300620 A    
C37   N1    1.363757 A    
C35   H15   1.082463 S    
C40   N4    1.425815 S    
C42   C44   1.412079 A    
C41   C43   1.412476 A    
N6    O15   1.301217 A    
C11   H2    1.077919 S    
O6    Zn2   1.965134 S    
C29   H13   1.083874 S    
C38   H18   1.081042 S    
C5    C9    1.399543 A    
O7    Zn2   1.905677 S    
C21   H19   1.084239 S    
N5    O13   1.301268 A    
C25   C27   1.394742 A    
O6    C4    1.297724 A    
C19   H7    1.077314 S    
C20   H8    1.078504 S    
C7    H5    1.083720 S    
C2    C28   1.443403 S    
O7    C3    1.293884 A    
O3    Zn2   1.992657 S    
O8    C4    1.292476 A    
N4    O12   1.301304 A    
N5    O14   1.301209 A    
C31   C33   1.398401 A    
C12   C14   1.396751 A    
O4    C2    1.289999 A    
O1    Zn1   2.005950 S    
C12   H1    1.075350 S    
C6    C12   1.395715 A    
C14   C18   1.421400 A    
N4    O11   1.300367 A    
O3    C1    1.284752 A    
O8    Zn1   1.905676 S    
C22   H20   1.084333 S    
C42   N6    1.436232 S    
C26   C28   1.401119 A    
C35   C37   1.406697 A    
C36   C38   1.408273 A    
C7    C15   1.406332 A    
C11   C13   1.393648 A    
C8    H6    1.083908 S    
C23   C33   1.399455 A    
C19   C21   1.390204 A    
C20   C22   1.386150 A    
C33   C34   1.441250 S    
C5    C11   1.391500 A    
C36   C44   1.410455 A    
C7    C9    1.396742 A    
C32   C34   1.396792 A    
C8    C10   1.392505 A    
C13   C15   1.416007 A    
O2    Zn2   2.005948 S    
C26   H12   1.083253 S    
O5    Zn1   1.965134 S    
C31   H21   1.083508 S    
C17   C18   1.415589 A    
N2    C40   1.374386 A    
C23   C25   1.380741 A    
C40   C42   1.419679 A    
N1    C39   1.375666 A    
C30   C32   1.379176 A    
Zn1   N2    2.013800 S    
