data_str_m3_o9_o27_f0_nbo.sym.277
_audit_creation_date              2013-03-05T16:40:07-0500
_audit_creation_method            fapswitch 2.2
_symmetry_space_group_name_H-M    P1
_symmetry_Int_Tables_number       1
_space_group_crystal_system       triclinic
_cell_length_a                    21.649902
_cell_length_b                    21.635329
_cell_length_c                    24.607362
_cell_angle_alpha                 116.302875
_cell_angle_beta                  115.544692
_cell_angle_gamma                 89.891621
_cell_volume                      9064.13995142

loop_
_atom_site_label
_atom_site_type_symbol
_atom_site_description
_atom_site_fract_x
_atom_site_fract_y
_atom_site_fract_z
_atom_type_partial_charge
O1    O     O_R   0.050920 0.499230 0.601880 -0.634003
O2    O     O_R   0.050930 0.602630 0.601850 -0.613703
C1    C     C_R   0.067584 0.567435 0.634642 0.849891
O3    O     O_R   0.091620 0.448300 0.500020 -0.616424
O4    O     O_R   0.091620 0.551700 0.499990 -0.553653
C2    C     C_R   0.118638 0.498630 0.497708 0.925606
Zn1   Zn    Zn3+2 0.000000 0.430960 0.500020 1.048323
Zn2   Zn    Zn3+2 0.000000 0.569040 0.499980 1.092286
O5    O     O_R   0.949070 0.397370 0.398150 -0.584756
O6    O     O_R   0.949080 0.500770 0.398120 -0.589680
O7    O     O_R   0.908380 0.448300 0.500010 -0.602847
O8    O     O_R   0.908380 0.551700 0.499980 -0.580895
C3    C     C_R   0.931372 0.432516 0.365387 0.966974
C4    C     C_R   0.880022 0.500158 0.500168 0.941581
H1    H     H_    0.967394 0.249120 0.210831 0.178532
C5    C     C_R   0.043395 0.280909 0.316056 -0.203862
H2    H     H_    0.021791 0.234874 0.314737 0.169754
C6    C     C_R   0.102540 0.331886 0.376271 0.579743
C7    C     C_R   0.128422 0.393129 0.378365 -0.038526
C8    C     C_R   0.097699 0.400050 0.318783 -0.165221
H3    H     H_    0.118155 0.445865 0.319143 0.200527
C9    C     C_R   0.040387 0.347826 0.258408 -0.107745
H4    H     H_    0.016934 0.353536 0.212643 0.170212
C10   C     C_R   0.012645 0.288814 0.257300 -0.203663
C11   C     C_R   0.254476 0.451444 0.443495 -0.247290
H5    H     H_    0.258233 0.413151 0.398671 0.182001
C12   C     C_R   0.314022 0.502087 0.502686 -0.154528
C13   C     C_R   0.309365 0.551024 0.561937 -0.101367
C14   C     C_R   0.244120 0.548236 0.559911 0.498594
C15   C     C_R   0.185014 0.498387 0.499309 -0.107199
C16   C     C_R   0.189892 0.448438 0.441575 0.005777
C17   C     C_R   0.419023 0.591160 0.674897 -0.120661
H6    H     H_    0.413681 0.537322 0.666153 0.127139
C18   C     C_R   0.475406 0.644640 0.735313 -0.135563
H7    H     H_    0.513403 0.632048 0.772859 0.149243
C19   C     C_R   0.482638 0.714379 0.747325 -0.108144
H8    H     H_    0.526283 0.755747 0.794122 0.159645
C20   C     C_R   0.433108 0.730832 0.699251 -0.091802
H9    H     H_    0.438216 0.784990 0.708988 0.179528
C21   C     C_R   0.376664 0.677458 0.638820 -0.028828
H10   H     H_    0.337658 0.690855 0.602643 0.213582
C22   C     C_R   0.370108 0.607084 0.625548 0.145696
C23   C     C_R   0.109484 0.677664 0.746866 -0.178845
H11   H     H_    0.082604 0.706075 0.720222 0.171327
C24   C     C_R   0.146293 0.713750 0.818673 -0.151225
H12   H     H_    0.147469 0.769464 0.845974 0.162812
C25   C     C_R   0.181482 0.678260 0.854573 0.079857
C26   C     C_R   0.179170 0.606099 0.817596 -0.168247
H13   H     H_    0.205609 0.577400 0.844052 0.161878
C27   C     C_R   0.141775 0.569863 0.745813 -0.232935
H14   H     H_    0.140534 0.514149 0.718323 0.166607
C28   C     C_R   0.106740 0.605460 0.710057 -0.038931
N1    N     N_R   0.265988 0.687537 0.964972 -0.163455
N2    N     N_R   0.300407 0.721584 0.033598 -0.154655
C29   C     C_R   0.289922 0.785410 0.070035 0.321148
N3    N     N_R   0.243975 0.814108 0.035329 -0.162803
N4    N     N_R   0.209747 0.780177 0.966681 -0.166462
C30   C     C_R   0.220006 0.716194 0.930266 0.287611
C31   C     C_R   0.303742 0.878071 0.182933 -0.126379
H15   H     H_    0.258783 0.895266 0.156665 0.167769
C32   C     C_R   0.338033 0.912068 0.254630 -0.214578
H16   H     H_    0.319735 0.955645 0.282435 0.173580
C33   C     C_R   0.396414 0.891318 0.290311 -0.157553
C34   C     C_R   0.419909 0.834436 0.253505 0.300697
C35   C     C_R   0.385045 0.800879 0.181319 -0.191638
H17   H     H_    0.402709 0.757160 0.152900 0.198204
C36   C     C_R   0.326995 0.822283 0.145773 0.011652
H18   H     H_    0.007570 0.458570 0.750821 0.139191
C37   C     C_R   0.911741 0.405901 0.653559 -0.121100
H19   H     H_    0.909931 0.355128 0.652006 0.144013
C38   C     C_R   0.858644 0.413293 0.600180 -0.121439
H20   H     H_    0.815800 0.368020 0.557692 0.125871
C39   C     C_R   0.861087 0.478940 0.601790 0.150551
C40   C     C_R   0.916602 0.537239 0.657732 -0.141849
H21   H     H_    0.918746 0.588432 0.660081 0.140831
C41   C     C_R   0.968866 0.529908 0.711587 -0.127893
H22   H     H_    0.010830 0.575256 0.755289 0.157632
C42   C     C_R   0.966785 0.464192 0.709261 -0.096999
C43   C     C_R   0.739155 0.487824 0.544864 -0.235738
H23   H     H_    0.731070 0.478068 0.581225 0.176345
C44   C     C_R   0.685283 0.501462 0.497435 -0.105169
C45   C     C_R   0.694687 0.514671 0.449799 -0.015988
C46   C     C_R   0.759051 0.511669 0.449532 0.529165
C47   C     C_R   0.813434 0.499945 0.499135 -0.169458
C48   C     C_R   0.803740 0.487638 0.546746 -0.082798
C49   C     C_R   0.583088 0.481263 0.342813 -0.356490
H24   H     H_    0.580545 0.427134 0.333025 0.181219
C50   C     C_R   0.528588 0.496152 0.296262 0.482182
C51   C     C_R   0.529984 0.567084 0.310790 0.213191
C52   C     C_R   0.588271 0.620859 0.369491 -0.369199
H25   H     H_    0.590248 0.675052 0.379545 0.251980
C53   C     C_R   0.644306 0.606034 0.415182 0.331295
C54   C     C_R   0.639785 0.535221 0.402907 -0.030524
C55   C     C_R   0.904045 0.419642 0.251518 0.466722
C56   C     C_R   0.869806 0.379503 0.179382 -0.272846
H26   H     H_    0.883054 0.397201 0.150057 0.173856
C57   C     C_R   0.818947 0.316965 0.145229 -0.041161
C58   C     C_R   0.802976 0.293193 0.182980 -0.230348
H27   H     H_    0.763186 0.244802 0.156154 0.204595
C59   C     C_R   0.838225 0.330650 0.255071 0.229838
C60   C     C_R   0.890107 0.394089 0.289825 -0.274583
N5    N     N_R   0.713424 0.242511 0.035415 -0.140837
N6    N     N_R   0.679857 0.205145 0.966861 -0.074937
C61   C     C_R   0.714075 0.198722 0.930343 0.350497
N7    N     N_R   0.782987 0.232803 0.965231 -0.178436
N8    N     N_R   0.816482 0.270915 0.033783 -0.167568
C62   C     C_R   0.782248 0.276078 0.069959 0.329810
C63   C     C_R   0.708847 0.169705 0.818968 -0.171875
H28   H     H_    0.761676 0.202154 0.846687 0.178068
C64   C     C_R   0.673354 0.139203 0.747544 -0.102217
H29   H     H_    0.700003 0.147287 0.721921 0.192098
C65   C     C_R   0.603879 0.099775 0.709771 -0.099992
C66   C     C_R   0.571187 0.088239 0.743710 -0.250607
H30   H     H_    0.518460 0.054901 0.714117 0.192438
C67   C     C_R   0.607473 0.115607 0.815273 0.366664
C68   C     C_R   0.676451 0.159479 0.854058 -0.036804
O9    O     O_R   0.471270 0.562870 0.442500 -0.640853
O10   O     O_R   0.528760 0.620350 0.557510 -0.565797
C69   C     C_R   0.499689 0.620318 0.500042 0.930031
O11   O     O_R   0.379630 0.471280 0.442490 -0.616972
O12   O     O_R   0.437130 0.528760 0.557500 -0.630073
C70   C     C_R   0.379796 0.501592 0.500759 0.890306
Zn3   Zn    Zn3+2 0.461610 0.461640 0.423210 1.033832
Zn4   Zn    Zn3+2 0.538390 0.538400 0.576790 1.053082
O13   O     O_R   0.471240 0.379700 0.442490 -0.602675
O14   O     O_R   0.528730 0.437170 0.557500 -0.618620
O15   O     O_R   0.562870 0.471280 0.442500 -0.633576
O16   O     O_R   0.620370 0.528760 0.557510 -0.587519
C71   C     C_R   0.500805 0.379774 0.499781 0.856689
C72   C     C_R   0.619947 0.501735 0.499339 0.946323
O17   O     O_R   0.551690 0.091430 0.499980 -0.612733
O18   O     O_R   0.448240 0.091390 0.499970 -0.622828
C73   C     C_R   0.500457 0.120601 0.501078 0.888425
O19   O     O_R   0.500800 0.948920 0.398140 -0.584809
O20   O     O_R   0.397350 0.948880 0.398140 -0.621687
C74   C     C_R   0.433156 0.931357 0.365567 0.923556
Zn5   Zn    Zn3+2 0.569070 0.999860 0.500000 1.039648
Zn6   Zn    Zn3+2 0.430930 0.999810 0.500000 1.013808
O21   O     O_R   0.551760 0.908280 0.500030 -0.598975
O22   O     O_R   0.448310 0.908240 0.500020 -0.614193
O23   O     O_R   0.602650 0.050790 0.601860 -0.617233
O24   O     O_R   0.499200 0.050750 0.601860 -0.621766
C75   C     C_R   0.500915 0.880681 0.501538 0.924276
C76   C     C_R   0.566950 0.066615 0.634574 0.897321
H31   H     H_    0.190133 0.508393 0.292483 0.180078
C77   C     C_R   0.291235 0.539418 0.305231 -0.160312
H32   H     H_    0.280818 0.495146 0.256034 0.184913
C78   C     C_R   0.356087 0.588109 0.347697 -0.083516
H33   H     H_    0.395338 0.581212 0.330668 0.194901
C79   C     C_R   0.370684 0.645146 0.411972 -0.065017
C80   C     C_R   0.317919 0.655106 0.432647 0.208925
C81   C     C_R   0.252299 0.604689 0.389514 0.269634
C82   C     C_R   0.239824 0.547408 0.325990 -0.245849
C83   C     C_R   0.441433 0.761496 0.456491 -0.083815
H34   H     H_    0.394679 0.769990 0.421862 0.166925
C84   C     C_R   0.502204 0.815564 0.503090 -0.114799
C85   C     C_R   0.562935 0.807135 0.550084 -0.126646
C86   C     C_R   0.562842 0.741699 0.548045 0.274868
C87   C     C_R   0.501101 0.686685 0.500054 -0.189894
C88   C     C_R   0.439694 0.697053 0.455023 0.047351
C89   C     C_R   0.682632 0.873049 0.590909 -0.031616
H35   H     H_    0.680430 0.835397 0.542643 0.184025
C90   C     C_R   0.742475 0.928378 0.641461 -0.113776
H36   H     H_    0.786261 0.933323 0.632173 0.152278
C91   C     C_R   0.745985 0.977023 0.704177 -0.107462
H37   H     H_    0.792479 0.019598 0.743457 0.141006
C92   C     C_R   0.689536 0.970559 0.716279 -0.114805
H38   H     H_    0.692601 0.007778 0.765101 0.151655
C93   C     C_R   0.629078 0.916137 0.665366 -0.105010
H39   H     H_    0.585517 0.911719 0.675156 0.151646
C94   C     C_R   0.625623 0.866768 0.602626 0.131641
H40   H     H_    0.635810 0.314332 0.322850 0.158557
C95   C     C_R   0.540081 0.275530 0.316434 -0.197118
H41   H     H_    0.508162 0.267292 0.264674 0.175476
C96   C     C_R   0.508976 0.258978 0.349641 0.379340
C97   C     C_R   0.552667 0.271268 0.417864 -0.022426
C98   C     C_R   0.625573 0.298156 0.449995 -0.228926
H42   H     H_    0.659394 0.308231 0.502174 0.161819
C99   C     C_R   0.655309 0.313083 0.415616 -0.104715
H43   H     H_    0.711497 0.333732 0.440721 0.159522
C100  C     C_R   0.612630 0.302142 0.349145 -0.162207
C101  C     C_R   0.523883 0.197203 0.460520 -0.164393
H44   H     H_    0.541354 0.155589 0.429421 0.160415
C102  C     C_R   0.500898 0.187401 0.501873 -0.073202
C103  C     C_R   0.479511 0.241516 0.543617 0.065039
C104  C     C_R   0.479326 0.304329 0.541491 -0.175510
H45   H     H_    0.463265 0.346638 0.573609 0.151113
C105  C     C_R   0.501047 0.313481 0.499263 -0.061524
C106  C     C_R   0.523922 0.260234 0.458583 0.072619
C107  C     C_R   0.393950 0.212317 0.575812 -0.157485
H46   H     H_    0.351729 0.199025 0.525128 0.153766
C108  C     C_R   0.378408 0.203636 0.621690 -0.194555
H47   H     H_    0.324394 0.184241 0.606656 0.166027
C109  C     C_R   0.432170 0.219888 0.686939 -0.196849
H48   H     H_    0.418263 0.213082 0.721574 0.205775
C110  C     C_R   0.502731 0.245964 0.707952 0.248692
C111  C     C_R   0.518578 0.253895 0.660758 0.227507
C112  C     C_R   0.463752 0.236419 0.594513 -0.045407
N9    N     N_R   0.476719 0.808399 0.288027 0.228360
O25   O     O_R   0.482720 0.803713 0.340934 -0.366181
O26   O     O_R   0.516568 0.780081 0.260999 -0.340735
O27   O     O_3   0.772003 0.526721 0.405576 -0.581735
C113  C     C_3   0.734758 0.470239 0.336842 -0.258798
H49   H     H_    0.712647 0.419990 0.331351 0.154405
H50   H     H_    0.771016 0.458578 0.314513 0.193607
H51   H     H_    0.691287 0.487034 0.305601 0.174492
O28   O     O_3   0.470502 0.442612 0.240306 -0.569284
C114  C     C_3   0.491089 0.393525 0.193908 -0.191900
H52   H     H_    0.519631 0.359207 0.213880 0.129524
H53   H     H_    0.523502 0.420281 0.182004 0.156170
H54   H     H_    0.442994 0.358437 0.144576 0.211014
O29   O     O_3   0.133033 0.323414 0.434005 -0.598549
C115  C     C_3   0.179880 0.278911 0.426860 -0.321611
H55   H     H_    0.221768 0.301787 0.421697 0.167165
H56   H     H_    0.151417 0.224723 0.382210 0.169363
H57   H     H_    0.206160 0.273912 0.474166 0.197537
N10   N     N_R   0.473534 0.585227 0.266029 0.221271
O30   O     O_R   0.467521 0.650588 0.287330 -0.333633
O31   O     O_R   0.428331 0.537300 0.203460 -0.325065
N11   N     N_R   0.704961 0.663067 0.471706 0.249678
O32   O     O_R   0.749730 0.658160 0.524878 -0.330149
O33   O     O_R   0.716033 0.721202 0.470123 -0.393609
O34   O     O_3   0.957415 0.479196 0.285042 -0.587240
C116  C     C_3   0.927685 0.534016 0.275534 -0.167731
H58   H     H_    0.969711 0.583553 0.308771 0.220070
H59   H     H_    0.885985 0.544040 0.291372 0.151916
H60   H     H_    0.906474 0.522399 0.221187 0.144358
N12   N     N_R   0.819877 0.303775 0.291540 0.222540
O35   O     O_R   0.810497 0.346105 0.343317 -0.433916
O36   O     O_R   0.802638 0.235680 0.266993 -0.371600
N13   N     N_R   0.574701 0.095423 0.846575 0.211216
O37   O     O_R   0.606841 0.065322 0.883094 -0.375876
O38   O     O_R   0.508203 0.093528 0.827279 -0.337799
N14   N     N_R   0.328993 0.718242 0.494211 0.212929
O39   O     O_R   0.389041 0.742973 0.550672 -0.431451
O40   O     O_R   0.281370 0.755222 0.491971 -0.320402
N15   N     N_R   0.198553 0.610232 0.409904 0.225226
O41   O     O_R   0.215325 0.633246 0.474235 -0.362897
O42   O     O_R   0.132412 0.585715 0.363373 -0.387516
N16   N     N_R   0.624860 0.731518 0.595012 0.222068
O43   O     O_R   0.652415 0.773165 0.661381 -0.356286
O44   O     O_R   0.651710 0.678322 0.571850 -0.364337
N17   N     N_R   0.433811 0.231558 0.314111 0.207661
O45   O     O_R   0.405677 0.192734 0.329291 -0.397902
O46   O     O_R   0.393161 0.241400 0.262783 -0.382099
N18   N     N_R   0.556438 0.265401 0.777138 0.213414
O47   O     O_R   0.541828 0.248521 0.815600 -0.377848
O48   O     O_R   0.618217 0.305057 0.804615 -0.315650
N19   N     N_R   0.589669 0.278584 0.678958 0.234767
O49   O     O_R   0.633039 0.237077 0.681896 -0.395301
O50   O     O_R   0.608498 0.338788 0.684039 -0.358849
O51   O     O_3   0.237234 0.597414 0.615751 -0.590705
C117  C     C_3   0.245285 0.568872 0.659389 -0.309505
H61   H     H_    0.296726 0.554167 0.677341 0.156778
H62   H     H_    0.201677 0.522115 0.633566 0.160247
H63   H     H_    0.243770 0.609874 0.705876 0.213812

loop_
_geom_bond_atom_site_label_1
_geom_bond_atom_site_label_2
_geom_bond_distance
_ccdc_geom_bond_type
C11   C16   1.379205 A    
O20   Zn6   2.002267 S    
C109  C110  1.408111 A    
C29   N3    1.356207 A    
C21   H10   1.081239 S    
C91   H37   1.082277 S    
C114  H53   1.114633 S    
C93   H39   1.083178 S    
N2    C29   1.356235 A    
C61   N7    1.358355 A    
C7    C8    1.402705 A    
O22   C75   1.278451 A    
C4    C47   1.430836 S    
C113  H49   1.115945 S    
C7    C16   1.481098 S    
C116  H58   1.109260 S    
O19   Zn5   2.011159 S    
N12   O36   1.301393 A    
C57   C58   1.395745 A    
C103  C104  1.382890 A    
O20   C74   1.285529 A    
C92   C93   1.397660 A    
N1    N2    1.328162 A    
N3    N4    1.328561 A    
C96   N17   1.442716 S    
C113  H50   1.109121 S    
O29   C115  1.409499 S    
N19   O49   1.299661 A    
C85   C86   1.394204 A    
C40   C41   1.397880 A    
C53   C54   1.418807 A    
C84   C85   1.404981 A    
C90   C91   1.398153 A    
C78   C79   1.401757 A    
C6    C7    1.410578 A    
C37   H19   1.082282 S    
O9    C69   1.272858 A    
C87   C88   1.412193 A    
C117  H61   1.111575 S    
O7    C4    1.277233 A    
C49   C50   1.402879 A    
C23   C28   1.401510 A    
Zn3   O13   2.017434 S    
N8    C62   1.354536 A    
C111  C112  1.412760 A    
O18   Zn6   2.017571 S    
C67   C68   1.419599 A    
C58   H27   1.083743 S    
C63   H28   1.082635 S    
C53   N11   1.446198 S    
C18   H7    1.082259 S    
C39   C40   1.403736 A    
C59   N12   1.439456 S    
O5    C3    1.284819 A    
C101  H44   1.084925 S    
C65   C66   1.398535 A    
O12   Zn4   2.022718 S    
C64   C65   1.396599 A    
C31   C36   1.401079 A    
C61   C68   1.476335 S    
O21   C75   1.275547 A    
H40   C100  1.082513 S    
C81   N15   1.438665 S    
C56   H26   1.083232 S    
C55   C60   1.411755 A    
C63   C64   1.387163 A    
C5    H2    1.082511 S    
N17   O46   1.301586 A    
C25   C26   1.403540 A    
C27   C28   1.401913 A    
C80   C81   1.419170 A    
C86   C87   1.413132 A    
C97   C98   1.405158 A    
C101  C106  1.385491 A    
C103  C112  1.479240 S    
C67   N13   1.434573 S    
C52   H25   1.082469 S    
O11   Zn3   2.013903 S    
Zn4   O16   2.013908 S    
H31   C82   1.082277 S    
C21   C22   1.401836 A    
C109  H48   1.082326 S    
C95   C100  1.395997 A    
C31   H15   1.082934 S    
C5    C10   1.396947 A    
C45   C54   1.487185 S    
C95   H41   1.082485 S    
N15   O41   1.300810 A    
O10   C69   1.275705 A    
C93   C94   1.403303 A    
C37   C42   1.398003 A    
N5    N6    1.328065 A    
N14   O40   1.301214 A    
C46   O27   1.388752 S    
N11   O33   1.301375 A    
N11   O32   1.300650 A    
C89   C90   1.398289 A    
C12   C70   1.444943 S    
O11   C70   1.283836 A    
C44   C45   1.414247 A    
C77   C78   1.392013 A    
C24   C25   1.403166 A    
H18   C42   1.082307 S    
C20   H9    1.082326 S    
C113  H51   1.109520 S    
N18   O48   1.300945 A    
N19   O50   1.300822 A    
C31   C32   1.388230 A    
O27   C113  1.414218 S    
C77   H32   1.082399 S    
O28   C114  1.411601 S    
C14   O51   1.386631 S    
N12   O35   1.300624 A    
C41   H22   1.081746 S    
O34   C116  1.410288 S    
O3    C2    1.271660 A    
C40   H21   1.083235 S    
O23   C76   1.286068 A    
C92   H38   1.081768 S    
C38   C39   1.403655 A    
C49   H24   1.082295 S    
C114  H52   1.111036 S    
O19   C74   1.285060 A    
O14   C71   1.274379 A    
C35   C36   1.402756 A    
C11   H5    1.084816 S    
C115  H55   1.113696 S    
C80   N14   1.439596 S    
C26   C27   1.389963 A    
C64   H29   1.082992 S    
C116  H59   1.114369 S    
C105  C106  1.406351 A    
O1    C1    1.286262 A    
C17   C18   1.398141 A    
C97   C106  1.482771 S    
Zn1   O7    2.017949 S    
C23   H11   1.083098 S    
C107  H46   1.083379 S    
C83   C88   1.378776 A    
C14   C15   1.399510 A    
O17   Zn5   2.016039 S    
C49   C54   1.402260 A    
O13   C71   1.271599 A    
C117  H63   1.108833 S    
Zn5   O21   2.017567 S    
C73   C102  1.436688 S    
C52   C53   1.407296 A    
C46   C47   1.405093 A    
N13   O37   1.301361 A    
C111  N19   1.432274 S    
C6    O29   1.381742 S    
Zn2   O8    2.019429 S    
C8    H3    1.081311 S    
N16   O44   1.299711 A    
C27   H14   1.083104 S    
O12   C70   1.271411 A    
N5    C62   1.354571 A    
N13   O38   1.301243 A    
C5    C6    1.404398 A    
O10   Zn4   2.017649 S    
C47   C48   1.405788 A    
C108  H47   1.082399 S    
C23   C24   1.390038 A    
C39   C48   1.478587 S    
C83   H34   1.085669 S    
C95   C96   1.408650 A    
Zn6   O22   2.016039 S    
C104  H45   1.085415 S    
Zn2   O6    2.005394 S    
H1    C10   1.082398 S    
C2    C15   1.420567 S    
C8    C9    1.396879 A    
C98   H42   1.083520 S    
C55   C56   1.398581 A    
C58   C59   1.395285 A    
N15   O42   1.301333 A    
Zn6   O24   2.011158 S    
C55   O34   1.384681 S    
C9    C10   1.396241 A    
C43   H23   1.085517 S    
C71   C105  1.428687 S    
C11   C12   1.398419 A    
N14   O39   1.301067 A    
C50   O28   1.384842 S    
C3    C60   1.465205 S    
C51   C52   1.405951 A    
C116  H60   1.111493 S    
Zn3   O15   2.022719 S    
C43   C48   1.378972 A    
C107  C112  1.399286 A    
Zn4   O14   2.015084 S    
C66   H30   1.083671 S    
C79   C88   1.484122 S    
C115  H57   1.109327 S    
Zn1   O5    2.008112 S    
Zn5   O23   2.002265 S    
N18   O47   1.301602 A    
C13   C14   1.392247 A    
C107  C108  1.392393 A    
C110  N18   1.444781 S    
O1    Zn1   2.005395 S    
C83   C84   1.389331 A    
C32   C33   1.400026 A    
O2    Zn2   2.008112 S    
C9    H4    1.082226 S    
C69   C87   1.436143 S    
C41   C42   1.397389 A    
C110  C111  1.419957 A    
O17   C73   1.279625 A    
O6    C3    1.287682 A    
O16   C72   1.279811 A    
O4    Zn2   2.017947 S    
C29   C36   1.465854 S    
N1    C30   1.355904 A    
C56   C57   1.396138 A    
C99   H43   1.081838 S    
N10   O31   1.301145 A    
N7    N8    1.328891 A    
C43   C44   1.392655 A    
C37   C38   1.398424 A    
C17   H6    1.083228 S    
C65   C76   1.458647 S    
C19   C20   1.397774 A    
O2    C1    1.285889 A    
N10   O30   1.301013 A    
C115  H56   1.112945 S    
C38   H20   1.082767 S    
C35   H17   1.083074 S    
C96   C97   1.421114 A    
C89   H35   1.081833 S    
C1    C28   1.460212 S    
C25   C30   1.465112 S    
N16   O43   1.301015 A    
C66   C67   1.397634 A    
C15   C16   1.402018 A    
C63   C68   1.406663 A    
C75   C84   1.426066 S    
O4    C2    1.277608 A    
C77   C82   1.393229 A    
C20   C21   1.397993 A    
C19   H8    1.082282 S    
C114  H54   1.109182 S    
C26   H13   1.082838 S    
C34   C35   1.398207 A    
C13   C22   1.482850 S    
C59   C60   1.419146 A    
C18   C19   1.397919 A    
C98   C99   1.395364 A    
O18   C73   1.280227 A    
O24   C76   1.286860 A    
C78   H33   1.082220 S    
C44   C72   1.435255 S    
O9    Zn3   2.015086 S    
C32   H16   1.083792 S    
C101  C102  1.398717 A    
O15   C72   1.270107 A    
C90   H36   1.082236 S    
C51   N10   1.442658 S    
C33   C34   1.414455 A    
C57   C62   1.458047 S    
C24   H12   1.082886 S    
O8    C4    1.276749 A    
N9    O25   1.301193 A    
C89   C94   1.402570 A    
C50   C51   1.410137 A    
O3    Zn1   2.019426 S    
C91   C92   1.397590 A    
C45   C46   1.397576 A    
C117  H62   1.111301 S    
C34   N9    1.439483 S    
C86   N16   1.439863 S    
N6    C61   1.355979 A    
N9    O26   1.301436 A    
C17   C22   1.405392 A    
C79   C80   1.418940 A    
C33   C74   1.457064 S    
C102  C103  1.408068 A    
C81   C82   1.404492 A    
C99   C100  1.392643 A    
N4    C30   1.356366 A    
C104  C105  1.394366 A    
C85   C94   1.480929 S    
N17   O45   1.300907 A    
C108  C109  1.394936 A    
O51   C117  1.410911 S    
C12   C13   1.419602 A    
