data_str_m12_o2_o8_f0_bcu.sym.37
_audit_creation_date              2012-12-11T16:37:34-0500
_audit_creation_method            fapswitch 2.2
_symmetry_space_group_name_H-M    P1
_symmetry_Int_Tables_number       1
_space_group_crystal_system       triclinic
_cell_length_a                    18.858286
_cell_length_b                    18.940894
_cell_length_c                    20.474227
_cell_angle_alpha                 107.267368
_cell_angle_beta                  106.580807
_cell_angle_gamma                 111.029468
_cell_volume                      5854.67190942

loop_
_atom_site_label
_atom_site_type_symbol
_atom_type_description
_atom_site_fract_x
_atom_site_fract_y
_atom_site_fract_z
_atom_type_partial_charge
C1    C     C_R   0.083696 0.086693 0.353380 -0.043562
C2    C     C_R   0.245651 0.071486 0.540727 -0.113741
C3    C     C_R   0.153229 0.222788 0.709821 -0.133359
C4    C     C_R   0.760161 0.925015 0.499759 -0.103738
C5    C     C_R   0.003035 0.766573 0.433811 -0.251218
C6    C     C_R   0.229404 0.272902 0.712081 0.056087
C7    C     C_R   0.951573 0.712374 0.452639 0.001823
C8    C     C_R   0.255331 0.000523 0.528940 0.034588
C9    C     C_R   0.027904 0.980825 0.724846 0.051452
C10   C     C_R   0.882216 0.370841 0.454443 -0.037885
C11   C     C_R   0.900494 0.314496 0.476287 -0.229122
C12   C     C_R   0.753564 0.992432 0.540708 0.072902
C13   C     C_R   0.930045 0.267275 0.436122 -0.084439
C14   C     C_R   0.929587 0.268622 0.367532 0.753244
C15   C     C_R   0.911538 0.325725 0.346030 -0.192321
C16   C     C_R   0.838168 0.815418 0.280995 -0.061172
C17   C     C_R   0.893818 0.380748 0.392691 0.165357
C18   C     C_R   0.991309 0.528827 0.426461 0.525488
C19   C     C_R   0.003035 0.610295 0.444762 -0.322842
C20   C     C_R   0.933845 0.624769 0.428446 0.004699
C21   C     C_R   0.851620 0.556483 0.387199 -0.215754
C22   C     C_R   0.838497 0.474661 0.369318 0.730386
C23   C     C_R   0.756238 0.792027 0.273691 0.075093
C24   C     C_R   0.907832 0.460612 0.390648 -0.316859
C25   C     C_R   0.534989 0.913567 0.527330 0.572089
C26   C     C_R   0.603503 0.918971 0.511885 -0.293180
C27   C     C_R   0.685525 0.984109 0.563406 0.069395
C28   C     C_R   0.951045 0.197355 0.523018 -0.136966
C29   C     C_R   0.700946 0.040035 0.634611 -0.133566
C30   C     C_R   0.633639 0.034150 0.652034 -0.213744
C31   C     C_R   0.550322 0.973723 0.597804 -0.094987
C32   C     C_R   0.483940 0.062902 0.599286 -0.138365
C33   C     C_R   0.410208 0.068229 0.579050 -0.137413
C34   C     C_R   0.967938 0.223985 0.470334 0.121373
C35   C     C_R   0.334644 0.001222 0.564192 0.138391
C36   C     C_R   0.335542 0.933737 0.579032 -0.137321
C37   C     C_R   0.410417 0.929483 0.601260 -0.044625
C38   C     C_R   0.482863 0.990922 0.605444 0.128359
C39   C     C_R   0.288863 0.362694 0.765051 0.134535
C40   C     C_R   0.760979 0.810047 0.346184 -0.028206
C41   C     C_R   0.265799 0.410771 0.812773 -0.169685
C42   C     C_R   0.324977 0.493113 0.867642 -0.146565
C43   C     C_R   0.408615 0.528569 0.875857 0.224709
C44   C     C_R   0.429137 0.483425 0.823764 -0.155678
C45   C     C_R   0.230049 0.228011 0.645503 -0.139897
C46   C     C_R   0.370107 0.400845 0.769128 -0.165657
C47   C     C_R   0.609508 0.730473 0.072532 -0.311718
C48   C     C_R   0.682920 0.770772 0.140330 0.753528
C49   C     C_R   0.531226 0.677779 0.067650 0.155265
C50   C     C_R   0.679039 0.758103 0.203907 -0.082764
C51   C     C_R   0.599724 0.711336 0.200285 -0.226570
C52   C     C_R   0.028880 0.204186 0.458420 -0.067804
C53   C     C_R   0.526517 0.672418 0.132903 -0.139237
C54   C     C_R   0.094696 0.023113 0.228966 -0.082502
C55   C     C_R   0.051516 0.952196 0.157731 -0.220632
C56   C     C_R   0.919032 0.755937 0.491557 0.472835
C57   C     C_R   0.078924 0.952279 0.101695 -0.175106
C58   C     C_R   0.150015 0.024087 0.115085 0.171486
C59   C     C_R   0.194186 0.094382 0.186253 -0.279139
C60   C     C_R   0.167904 0.093979 0.243450 0.751034
C61   C     C_R   0.173125 0.044287 0.926568 0.780716
C62   C     C_R   0.140612 0.047570 0.857915 -0.345157
C63   C     C_R   0.136856 0.967513 0.931262 0.039055
C64   C     C_R   0.828858 0.064722 0.566107 -0.137330
C65   C     C_R   0.072368 0.974934 0.793421 0.056213
C66   C     C_R   0.044176 0.897029 0.796377 -0.152389
C67   C     C_R   0.176918 0.930350 0.477363 -0.090898
C68   C     C_R   0.076987 0.893536 0.864668 -0.249802
C69   C     C_R   0.014990 0.946851 0.289451 -0.101035
C70   C     C_R   0.061901 0.020159 0.286147 0.123531
C71   C     C_R   0.037412 0.054067 0.718003 -0.127471
C72   C     C_R   0.971739 0.913978 0.653225 -0.044190
F1    F     F_    0.950632 0.218429 0.323499 -0.691055
F2    F     F_    0.758247 0.409523 0.334734 -0.657352
F3    F     F_    0.757147 0.820999 0.142890 -0.709992
F4    F     F_    0.235908 0.116754 0.988799 -0.677817
F5    F     F_    0.214591 0.162881 0.312159 -0.701889
H1    H     H_    0.128855 0.152318 0.375289 0.173999
H2    H     H_    0.719505 0.859281 0.483334 0.143657
H3    H     H_    0.918678 0.332215 0.297141 0.182390
H4    H     H_    0.066518 0.663529 0.474470 0.195237
H5    H     H_    0.797599 0.565833 0.369335 0.230582
H6    H     H_    0.592513 0.875589 0.457172 0.175460
H7    H     H_    0.764434 0.089517 0.675793 0.125845
H8    H     H_    0.645785 0.081290 0.705393 0.152375
H9    H     H_    0.539761 0.111063 0.602761 0.132143
H10   H     H_    0.858341 0.809476 0.236296 0.160592
H11   H     H_    0.411106 0.121338 0.568752 0.123783
H12   H     H_    0.162390 0.865020 0.455766 0.115623
H13   H     H_    0.277976 0.882825 0.570118 0.124600
H14   H     H_    0.410013 0.875013 0.608423 0.165081
H15   H     H_    0.614377 0.737594 0.023174 0.176391
H16   H     H_    0.493155 0.509891 0.829426 0.134567
H17   H     H_    0.389713 0.365738 0.732832 0.122713
H18   H     H_    0.594175 0.700939 0.248194 0.168588
H19   H     H_    0.306551 0.527213 0.906082 0.136122
H20   H     H_    0.466626 0.632221 0.129860 0.155094
H21   H     H_    0.905872 0.201310 0.544459 0.107244
H22   H     H_    0.202938 0.384562 0.809480 0.120731
H23   H     H_    0.078001 0.118144 0.762054 0.110653
H24   H     H_    0.166751 0.107828 0.856548 0.165229
H25   H     H_    0.248123 0.150489 0.196795 0.194498
H26   H     H_    0.992803 0.839370 0.747661 0.153147
H27   H     H_    0.041385 0.897799 0.046386 0.151379
H28   H     H_    0.049140 0.834095 0.867295 0.167529
H29   H     H_    0.994492 0.897123 0.143960 0.170286
H30   H     H_    0.709669 0.801224 0.361934 0.102817
H31   H     H_    0.057977 0.217212 0.422039 0.164565
H32   H     H_    0.849991 0.127027 0.608958 0.095288
H33   H     H_    0.999655 0.883599 0.253351 0.098212
H34   H     H_    0.955867 0.848820 0.637154 0.131811
H35   H     H_    0.272156 0.253475 0.622193 0.104067
H36   H     H_    0.689786 0.634477 0.409239 0.388506
H37   H     H_    0.118469 0.445296 0.510225 0.374559
H38   H     H_    0.323144 0.735212 0.443007 0.392677
H39   H     H_    0.293626 0.136371 0.578355 0.101273
H40   H     H_    0.125636 0.242437 0.746432 0.093543
H41   H     H_    0.027113 0.749003 0.393131 0.152248
H42   H     H_    0.868080 0.413180 0.490565 0.144057
H43   H     H_    0.898805 0.314048 0.528535 0.148960
N1    N     N_R   0.051550 0.054780 0.395070 -0.062827
N2    N     N_2   0.459388 0.618912 0.997314 -0.078156
N3    N     N_2   0.167664 0.032590 0.054254 -0.004517
N4    N     N_R   0.835860 0.954800 0.499920 -0.043391
N5    N     N_2   0.143162 0.963571 0.000597 -0.067654
N6    N     N_R   0.889940 0.849160 0.355180 -0.063491
N7    N     N_R   0.997480 0.160420 0.539810 -0.046760
N8    N     N_R   0.842280 0.845520 0.395070 -0.039799
N9    N     N_R   0.045130 0.164060 0.499920 -0.060322
N10   N     N_R   0.878630 0.041580 0.539810 -0.045654
N11   N     N_R   0.008780 0.968000 0.355180 -0.049299
N12   N     N_R   0.954870 0.835940 0.500080 -0.109525
N13   N     N_R   0.157720 0.154480 0.604930 -0.042057
N14   N     N_R   0.121370 0.958420 0.460190 -0.046042
N15   N     N_R   0.991220 0.032000 0.644820 -0.052548
N16   N     N_R   0.948450 0.945220 0.604930 -0.033710
N17   N     N_R   0.164140 0.045200 0.500080 -0.044012
N18   N     N_R   0.110060 0.150840 0.644820 -0.042995
N19   N     N_R   0.002520 0.839580 0.460190 -0.072411
N20   N     N_2   0.476487 0.601105 0.942128 -0.086164
Ni1   Ni    Ni4+2 0.103690 0.103690 0.500000 0.228974
Ni2   Ni    Ni4+2 0.896310 0.896310 0.500000 0.316689
Ni3   Ni    Ni4+2 0.005600 0.904650 0.408510 0.218116
Ni4   Ni    Ni4+2 0.994400 0.095350 0.591490 0.211900
O1    O     O_2   0.817251 0.642295 0.521466 -0.282396
O2    O     O_2   0.805976 0.771631 0.543719 -0.321972
O3    O     O_3   0.742760 0.661505 0.404787 -0.567801
O4    O     O_2   0.083301 0.461621 0.384287 -0.276705
O5    O     O_2   0.161713 0.599776 0.495552 -0.261250
O6    O     O_3   0.079295 0.468591 0.511918 -0.542584
O7    O     O_2   0.381451 0.881370 0.435615 -0.295681
O8    O     O_2   0.436336 0.791359 0.382237 -0.266794
O9    O     O_3   0.383159 0.767278 0.481233 -0.524824
S1    S     S_3+6 0.820454 0.707781 0.493473 -0.071080
S2    S     S_3+6 0.082221 0.515749 0.454162 -0.020691
S3    S     S_3+6 0.431839 0.837772 0.453283 -0.030600

loop_
_geom_bond_atom_site_label_1
_geom_bond_atom_site_label_2
_ccdc_geom_bond_type
C25   C31   A    
C66   C68   A    
C26   H6    S    
C6    C45   A    
C27   C29   A    
C47   H15   S    
C35   C36   A    
C9    C72   A    
C3    C6    A    
N14   N17   A    
C57   C58   A    
C45   H35   S    
N15   N16   A    
C39   C41   A    
C54   C60   A    
N12   N19   A    
C58   N3    S    
C29   C30   A    
C42   H19   S    
C52   N9    A    
C21   C22   A    
C36   C37   A    
C33   H11   S    
C71   N15   A    
C30   C31   A    
C12   C64   A    
N3    N5    D    
N9    Ni1   S    
C10   C17   A    
C28   H21   S    
C23   C40   A    
C40   N8    A    
N6    Ni3   S    
C67   H12   S    
C4    N4    A    
C18   C19   A    
C41   C42   A    
C61   C63   A    
O3    S1    S    
N16   Ni2   S    
C10   H42   S    
C3    H40   S    
N14   Ni3   S    
C63   C68   A    
C2    H39   S    
O8    S3    D    
C54   C70   S    
C16   H10   S    
C41   H22   S    
C44   H16   S    
O4    S2    D    
C32   C38   A    
C4    C12   A    
N10   Ni4   S    
C28   N7    A    
C62   H24   S    
C48   C50   A    
C72   H34   S    
C28   C34   A    
C59   C60   A    
C13   C14   A    
H38   O9    S    
C25   S3    S    
C1    H1    S    
C59   H25   S    
C48   F3    S    
N4    Ni2   S    
C61   C62   A    
N19   Ni3   S    
C7    C56   A    
N1    N11   A    
C11   H43   S    
C44   C46   A    
C5    N19   A    
C1    N1    A    
C61   F4    S    
N12   Ni2   S    
C60   F5    S    
C17   C24   S    
C37   H14   S    
C55   H29   S    
C14   F1    S    
N1    Ni1   S    
C67   N14   A    
C4    H2    S    
C47   C49   A    
C5    C7    A    
C23   C50   S    
C12   C27   S    
C53   H20   S    
C25   C26   A    
O9    S3    S    
C8    C35   S    
C43   C44   A    
N7    N9    A    
C37   C38   A    
C69   H33   S    
C15   H3    S    
C46   H17   S    
C69   N11   A    
C32   H9    S    
C50   C51   A    
C26   C27   A    
N4    N10   A    
C43   N20   S    
C3    N18   A    
C56   N12   A    
O7    S3    D    
C21   H5    S    
C30   H8    S    
C63   N5    S    
C29   H7    S    
C39   C46   A    
O1    S1    D    
C56   S1    S    
N15   Ni4   S    
C64   N10   A    
C65   C66   A    
C16   C23   A    
O6    S2    S    
C40   H30   S    
O2    S1    D    
C18   C24   A    
C42   C43   A    
C22   F2    S    
N11   Ni3   S    
C36   H13   S    
C15   C17   A    
C57   H27   S    
N17   Ni1   S    
C54   C55   A    
N6    N8    A    
C62   C65   A    
C14   C15   A    
C2    N17   A    
C45   N13   A    
C66   H26   S    
C2    C8    A    
C9    C71   A    
C47   C48   A    
C71   H23   S    
C34   C52   A    
C1    C70   A    
C31   C38   S    
C5    H41   S    
C32   C33   A    
H36   O3    S    
C19   C20   A    
C55   C57   A    
C58   C59   A    
N2    N20   D    
C13   C34   S    
N18   Ni4   S    
C11   C13   A    
C64   H32   S    
C16   N6    A    
C49   C53   A    
C49   N2    S    
C33   C35   A    
C22   C24   A    
N7    Ni4   S    
O5    S2    D    
C69   C70   A    
C9    C65   S    
C72   N16   A    
C10   C11   A    
N13   N18   A    
C20   C21   A    
C52   H31   S    
C8    C67   A    
C7    C20   S    
C68   H28   S    
H37   O6    S    
C6    C39   S    
N13   Ni1   S    
C51   C53   A    
C19   H4    S    
N8    Ni2   S    
C18   S2    S    
C51   H18   S    
